<?xml version="1.0" encoding="UTF-8"?>

<!-- generated on 2025-08-14 10:46:00 by Eclipse SUMO netgenerate Version 1.24.0
<netgenerateConfiguration xmlns:xsi="http://www.w3.org/2001/XMLSchema-instance" xsi:noNamespaceSchemaLocation="http://sumo.dlr.de/xsd/netgenerateConfiguration.xsd">

    <grid_network>
        <grid value="true"/>
        <grid.length value="120"/>
        <grid.x-number value="6"/>
        <grid.y-number value="2"/>
    </grid_network>

    <output>
        <output-file value="sumo/scenarios/arterial/net.net.xml"/>
    </output>

    <building_defaults>
        <default.lanenumber value="2"/>
        <default-junction-type value="traffic_light"/>
    </building_defaults>

    <tls_building>
        <tls.default-type value="static"/>
    </tls_building>

</netgenerateConfiguration>
-->

<net version="1.20" junctionCornerDetail="5" limitTurnSpeed="5.50" xmlns:xsi="http://www.w3.org/2001/XMLSchema-instance" xsi:noNamespaceSchemaLocation="http://sumo.dlr.de/xsd/net_file.xsd">

    <location netOffset="0.00,0.00" convBoundary="0.00,0.00,600.00,120.00" origBoundary="0.00,0.00,600.00,120.00" projParameter="!"/>

    <edge id=":A0_0" function="internal">
        <lane id=":A0_0_0" index="0" speed="8.96" length="18.06" shape="-4.80,6.40 -4.10,1.50 -2.00,-2.00 1.50,-4.10 6.40,-4.80"/>
        <lane id=":A0_0_1" index="1" speed="7.66" length="12.90" shape="-1.60,6.40 -1.10,2.90 0.40,0.40 2.90,-1.10 6.40,-1.60"/>
    </edge>
    <edge id=":A0_2" function="internal">
        <lane id=":A0_2_0" index="0" speed="3.90" length="2.58" shape="6.40,4.80 5.70,4.90 5.20,5.20 4.90,5.70 4.80,6.40"/>
        <lane id=":A0_2_1" index="1" speed="6.08" length="7.74" shape="6.40,1.60 4.30,1.90 2.80,2.80 1.90,4.30 1.60,6.40"/>
    </edge>
    <edge id=":A1_0" function="internal">
        <lane id=":A1_0_0" index="0" speed="8.96" length="18.06" shape="6.40,124.80 1.50,124.10 -2.00,122.00 -4.10,118.50 -4.80,113.60"/>
        <lane id=":A1_0_1" index="1" speed="7.66" length="12.90" shape="6.40,121.60 2.90,121.10 0.40,119.60 -1.10,117.10 -1.60,113.60"/>
    </edge>
    <edge id=":A1_2" function="internal">
        <lane id=":A1_2_0" index="0" speed="3.90" length="2.58" shape="4.80,113.60 4.90,114.30 5.20,114.80 5.70,115.10 6.40,115.20"/>
        <lane id=":A1_2_1" index="1" speed="6.08" length="7.74" shape="1.60,113.60 1.90,115.70 2.80,117.20 4.30,118.10 6.40,118.40"/>
    </edge>
    <edge id=":B0_0" function="internal">
        <lane id=":B0_0_0" index="0" speed="6.51" length="9.03" shape="115.20,10.40 114.85,7.95 113.80,6.20 112.05,5.15 109.60,4.80"/>
        <lane id=":B0_0_1" index="1" speed="8.00" length="14.19" shape="118.40,10.40 117.85,6.55 116.20,3.80 113.45,2.15 109.60,1.60"/>
    </edge>
    <edge id=":B0_2" function="internal">
        <lane id=":B0_2_0" index="0" speed="9.26" length="19.35" shape="118.40,10.40 119.15,5.15 121.40,1.40 125.15,-0.85 130.40,-1.60"/>
    </edge>
    <edge id=":B0_3" function="internal">
        <lane id=":B0_3_0" index="0" speed="3.65" length="2.34" shape="118.40,10.40 119.20,9.20 120.00,8.80"/>
    </edge>
    <edge id=":B0_12" function="internal">
        <lane id=":B0_12_0" index="0" speed="3.65" length="2.34" shape="120.00,8.80 120.80,9.20 121.60,10.40"/>
    </edge>
    <edge id=":B0_4" function="internal">
        <lane id=":B0_4_0" index="0" speed="6.51" length="9.03" shape="130.40,4.80 127.95,5.15 126.20,6.20 125.15,7.95 124.80,10.40"/>
    </edge>
    <edge id=":B0_5" function="internal">
        <lane id=":B0_5_0" index="0" speed="13.89" length="20.80" shape="130.40,4.80 109.60,4.80"/>
        <lane id=":B0_5_1" index="1" speed="13.89" length="20.80" shape="130.40,1.60 109.60,1.60"/>
    </edge>
    <edge id=":B0_7" function="internal">
        <lane id=":B0_7_0" index="0" speed="3.65" length="1.44" shape="130.40,1.60 129.20,0.80"/>
    </edge>
    <edge id=":B0_13" function="internal">
        <lane id=":B0_13_0" index="0" speed="3.65" length="3.23" shape="129.20,0.80 128.80,0.00 129.20,-0.80 130.40,-1.60"/>
    </edge>
    <edge id=":B0_8" function="internal">
        <lane id=":B0_8_0" index="0" speed="13.89" length="20.80" shape="109.60,-4.80 130.40,-4.80"/>
        <lane id=":B0_8_1" index="1" speed="13.89" length="20.80" shape="109.60,-1.60 130.40,-1.60"/>
    </edge>
    <edge id=":B0_10" function="internal">
        <lane id=":B0_10_0" index="0" speed="9.26" length="5.01" shape="109.60,-1.60 114.56,-0.89"/>
    </edge>
    <edge id=":B0_11" function="internal">
        <lane id=":B0_11_0" index="0" speed="3.65" length="1.44" shape="109.60,-1.60 110.80,-0.80"/>
    </edge>
    <edge id=":B0_14" function="internal">
        <lane id=":B0_14_0" index="0" speed="9.26" length="14.34" shape="114.56,-0.89 114.85,-0.85 118.60,1.40 120.85,5.15 121.60,10.40"/>
    </edge>
    <edge id=":B0_15" function="internal">
        <lane id=":B0_15_0" index="0" speed="3.65" length="3.23" shape="110.80,-0.80 111.20,0.00 110.80,0.80 109.60,1.60"/>
    </edge>
    <edge id=":B1_0" function="internal">
        <lane id=":B1_0_0" index="0" speed="13.89" length="20.80" shape="130.40,124.80 109.60,124.80"/>
        <lane id=":B1_0_1" index="1" speed="13.89" length="20.80" shape="130.40,121.60 109.60,121.60"/>
    </edge>
    <edge id=":B1_2" function="internal">
        <lane id=":B1_2_0" index="0" speed="9.26" length="5.01" shape="130.40,121.60 125.44,120.89"/>
    </edge>
    <edge id=":B1_3" function="internal">
        <lane id=":B1_3_0" index="0" speed="3.65" length="1.44" shape="130.40,121.60 129.20,120.80"/>
    </edge>
    <edge id=":B1_12" function="internal">
        <lane id=":B1_12_0" index="0" speed="9.26" length="14.34" shape="125.44,120.89 125.15,120.85 121.40,118.60 119.15,114.85 118.40,109.60"/>
    </edge>
    <edge id=":B1_13" function="internal">
        <lane id=":B1_13_0" index="0" speed="3.65" length="3.23" shape="129.20,120.80 128.80,120.00 129.20,119.20 130.40,118.40"/>
    </edge>
    <edge id=":B1_4" function="internal">
        <lane id=":B1_4_0" index="0" speed="6.51" length="9.03" shape="124.80,109.60 125.15,112.05 126.20,113.80 127.95,114.85 130.40,115.20"/>
        <lane id=":B1_4_1" index="1" speed="8.00" length="14.19" shape="121.60,109.60 122.15,113.45 123.80,116.20 126.55,117.85 130.40,118.40"/>
    </edge>
    <edge id=":B1_6" function="internal">
        <lane id=":B1_6_0" index="0" speed="9.26" length="19.35" shape="121.60,109.60 120.85,114.85 118.60,118.60 114.85,120.85 109.60,121.60"/>
    </edge>
    <edge id=":B1_7" function="internal">
        <lane id=":B1_7_0" index="0" speed="3.65" length="2.34" shape="121.60,109.60 120.80,110.80 120.00,111.20"/>
    </edge>
    <edge id=":B1_14" function="internal">
        <lane id=":B1_14_0" index="0" speed="3.65" length="2.34" shape="120.00,111.20 119.20,110.80 118.40,109.60"/>
    </edge>
    <edge id=":B1_8" function="internal">
        <lane id=":B1_8_0" index="0" speed="6.51" length="9.03" shape="109.60,115.20 112.05,114.85 113.80,113.80 114.85,112.05 115.20,109.60"/>
    </edge>
    <edge id=":B1_9" function="internal">
        <lane id=":B1_9_0" index="0" speed="13.89" length="20.80" shape="109.60,115.20 130.40,115.20"/>
        <lane id=":B1_9_1" index="1" speed="13.89" length="20.80" shape="109.60,118.40 130.40,118.40"/>
    </edge>
    <edge id=":B1_11" function="internal">
        <lane id=":B1_11_0" index="0" speed="3.65" length="1.44" shape="109.60,118.40 110.80,119.20"/>
    </edge>
    <edge id=":B1_15" function="internal">
        <lane id=":B1_15_0" index="0" speed="3.65" length="3.23" shape="110.80,119.20 111.20,120.00 110.80,120.80 109.60,121.60"/>
    </edge>
    <edge id=":C0_0" function="internal">
        <lane id=":C0_0_0" index="0" speed="6.51" length="9.03" shape="235.20,10.40 234.85,7.95 233.80,6.20 232.05,5.15 229.60,4.80"/>
        <lane id=":C0_0_1" index="1" speed="8.00" length="14.19" shape="238.40,10.40 237.85,6.55 236.20,3.80 233.45,2.15 229.60,1.60"/>
    </edge>
    <edge id=":C0_2" function="internal">
        <lane id=":C0_2_0" index="0" speed="9.26" length="19.35" shape="238.40,10.40 239.15,5.15 241.40,1.40 245.15,-0.85 250.40,-1.60"/>
    </edge>
    <edge id=":C0_3" function="internal">
        <lane id=":C0_3_0" index="0" speed="3.65" length="2.34" shape="238.40,10.40 239.20,9.20 240.00,8.80"/>
    </edge>
    <edge id=":C0_12" function="internal">
        <lane id=":C0_12_0" index="0" speed="3.65" length="2.34" shape="240.00,8.80 240.80,9.20 241.60,10.40"/>
    </edge>
    <edge id=":C0_4" function="internal">
        <lane id=":C0_4_0" index="0" speed="6.51" length="9.03" shape="250.40,4.80 247.95,5.15 246.20,6.20 245.15,7.95 244.80,10.40"/>
    </edge>
    <edge id=":C0_5" function="internal">
        <lane id=":C0_5_0" index="0" speed="13.89" length="20.80" shape="250.40,4.80 229.60,4.80"/>
        <lane id=":C0_5_1" index="1" speed="13.89" length="20.80" shape="250.40,1.60 229.60,1.60"/>
    </edge>
    <edge id=":C0_7" function="internal">
        <lane id=":C0_7_0" index="0" speed="3.65" length="1.44" shape="250.40,1.60 249.20,0.80"/>
    </edge>
    <edge id=":C0_13" function="internal">
        <lane id=":C0_13_0" index="0" speed="3.65" length="3.23" shape="249.20,0.80 248.80,0.00 249.20,-0.80 250.40,-1.60"/>
    </edge>
    <edge id=":C0_8" function="internal">
        <lane id=":C0_8_0" index="0" speed="13.89" length="20.80" shape="229.60,-4.80 250.40,-4.80"/>
        <lane id=":C0_8_1" index="1" speed="13.89" length="20.80" shape="229.60,-1.60 250.40,-1.60"/>
    </edge>
    <edge id=":C0_10" function="internal">
        <lane id=":C0_10_0" index="0" speed="9.26" length="5.01" shape="229.60,-1.60 234.56,-0.89"/>
    </edge>
    <edge id=":C0_11" function="internal">
        <lane id=":C0_11_0" index="0" speed="3.65" length="1.44" shape="229.60,-1.60 230.80,-0.80"/>
    </edge>
    <edge id=":C0_14" function="internal">
        <lane id=":C0_14_0" index="0" speed="9.26" length="14.34" shape="234.56,-0.89 234.85,-0.85 238.60,1.40 240.85,5.15 241.60,10.40"/>
    </edge>
    <edge id=":C0_15" function="internal">
        <lane id=":C0_15_0" index="0" speed="3.65" length="3.23" shape="230.80,-0.80 231.20,0.00 230.80,0.80 229.60,1.60"/>
    </edge>
    <edge id=":C1_0" function="internal">
        <lane id=":C1_0_0" index="0" speed="13.89" length="20.80" shape="250.40,124.80 229.60,124.80"/>
        <lane id=":C1_0_1" index="1" speed="13.89" length="20.80" shape="250.40,121.60 229.60,121.60"/>
    </edge>
    <edge id=":C1_2" function="internal">
        <lane id=":C1_2_0" index="0" speed="9.26" length="5.01" shape="250.40,121.60 245.44,120.89"/>
    </edge>
    <edge id=":C1_3" function="internal">
        <lane id=":C1_3_0" index="0" speed="3.65" length="1.44" shape="250.40,121.60 249.20,120.80"/>
    </edge>
    <edge id=":C1_12" function="internal">
        <lane id=":C1_12_0" index="0" speed="9.26" length="14.34" shape="245.44,120.89 245.15,120.85 241.40,118.60 239.15,114.85 238.40,109.60"/>
    </edge>
    <edge id=":C1_13" function="internal">
        <lane id=":C1_13_0" index="0" speed="3.65" length="3.23" shape="249.20,120.80 248.80,120.00 249.20,119.20 250.40,118.40"/>
    </edge>
    <edge id=":C1_4" function="internal">
        <lane id=":C1_4_0" index="0" speed="6.51" length="9.03" shape="244.80,109.60 245.15,112.05 246.20,113.80 247.95,114.85 250.40,115.20"/>
        <lane id=":C1_4_1" index="1" speed="8.00" length="14.19" shape="241.60,109.60 242.15,113.45 243.80,116.20 246.55,117.85 250.40,118.40"/>
    </edge>
    <edge id=":C1_6" function="internal">
        <lane id=":C1_6_0" index="0" speed="9.26" length="19.35" shape="241.60,109.60 240.85,114.85 238.60,118.60 234.85,120.85 229.60,121.60"/>
    </edge>
    <edge id=":C1_7" function="internal">
        <lane id=":C1_7_0" index="0" speed="3.65" length="2.34" shape="241.60,109.60 240.80,110.80 240.00,111.20"/>
    </edge>
    <edge id=":C1_14" function="internal">
        <lane id=":C1_14_0" index="0" speed="3.65" length="2.34" shape="240.00,111.20 239.20,110.80 238.40,109.60"/>
    </edge>
    <edge id=":C1_8" function="internal">
        <lane id=":C1_8_0" index="0" speed="6.51" length="9.03" shape="229.60,115.20 232.05,114.85 233.80,113.80 234.85,112.05 235.20,109.60"/>
    </edge>
    <edge id=":C1_9" function="internal">
        <lane id=":C1_9_0" index="0" speed="13.89" length="20.80" shape="229.60,115.20 250.40,115.20"/>
        <lane id=":C1_9_1" index="1" speed="13.89" length="20.80" shape="229.60,118.40 250.40,118.40"/>
    </edge>
    <edge id=":C1_11" function="internal">
        <lane id=":C1_11_0" index="0" speed="3.65" length="1.44" shape="229.60,118.40 230.80,119.20"/>
    </edge>
    <edge id=":C1_15" function="internal">
        <lane id=":C1_15_0" index="0" speed="3.65" length="3.23" shape="230.80,119.20 231.20,120.00 230.80,120.80 229.60,121.60"/>
    </edge>
    <edge id=":D0_0" function="internal">
        <lane id=":D0_0_0" index="0" speed="6.51" length="9.03" shape="355.20,10.40 354.85,7.95 353.80,6.20 352.05,5.15 349.60,4.80"/>
        <lane id=":D0_0_1" index="1" speed="8.00" length="14.19" shape="358.40,10.40 357.85,6.55 356.20,3.80 353.45,2.15 349.60,1.60"/>
    </edge>
    <edge id=":D0_2" function="internal">
        <lane id=":D0_2_0" index="0" speed="9.26" length="19.35" shape="358.40,10.40 359.15,5.15 361.40,1.40 365.15,-0.85 370.40,-1.60"/>
    </edge>
    <edge id=":D0_3" function="internal">
        <lane id=":D0_3_0" index="0" speed="3.65" length="2.34" shape="358.40,10.40 359.20,9.20 360.00,8.80"/>
    </edge>
    <edge id=":D0_12" function="internal">
        <lane id=":D0_12_0" index="0" speed="3.65" length="2.34" shape="360.00,8.80 360.80,9.20 361.60,10.40"/>
    </edge>
    <edge id=":D0_4" function="internal">
        <lane id=":D0_4_0" index="0" speed="6.51" length="9.03" shape="370.40,4.80 367.95,5.15 366.20,6.20 365.15,7.95 364.80,10.40"/>
    </edge>
    <edge id=":D0_5" function="internal">
        <lane id=":D0_5_0" index="0" speed="13.89" length="20.80" shape="370.40,4.80 349.60,4.80"/>
        <lane id=":D0_5_1" index="1" speed="13.89" length="20.80" shape="370.40,1.60 349.60,1.60"/>
    </edge>
    <edge id=":D0_7" function="internal">
        <lane id=":D0_7_0" index="0" speed="3.65" length="1.44" shape="370.40,1.60 369.20,0.80"/>
    </edge>
    <edge id=":D0_13" function="internal">
        <lane id=":D0_13_0" index="0" speed="3.65" length="3.23" shape="369.20,0.80 368.80,0.00 369.20,-0.80 370.40,-1.60"/>
    </edge>
    <edge id=":D0_8" function="internal">
        <lane id=":D0_8_0" index="0" speed="13.89" length="20.80" shape="349.60,-4.80 370.40,-4.80"/>
        <lane id=":D0_8_1" index="1" speed="13.89" length="20.80" shape="349.60,-1.60 370.40,-1.60"/>
    </edge>
    <edge id=":D0_10" function="internal">
        <lane id=":D0_10_0" index="0" speed="9.26" length="5.01" shape="349.60,-1.60 354.56,-0.89"/>
    </edge>
    <edge id=":D0_11" function="internal">
        <lane id=":D0_11_0" index="0" speed="3.65" length="1.44" shape="349.60,-1.60 350.80,-0.80"/>
    </edge>
    <edge id=":D0_14" function="internal">
        <lane id=":D0_14_0" index="0" speed="9.26" length="14.34" shape="354.56,-0.89 354.85,-0.85 358.60,1.40 360.85,5.15 361.60,10.40"/>
    </edge>
    <edge id=":D0_15" function="internal">
        <lane id=":D0_15_0" index="0" speed="3.65" length="3.23" shape="350.80,-0.80 351.20,0.00 350.80,0.80 349.60,1.60"/>
    </edge>
    <edge id=":D1_0" function="internal">
        <lane id=":D1_0_0" index="0" speed="13.89" length="20.80" shape="370.40,124.80 349.60,124.80"/>
        <lane id=":D1_0_1" index="1" speed="13.89" length="20.80" shape="370.40,121.60 349.60,121.60"/>
    </edge>
    <edge id=":D1_2" function="internal">
        <lane id=":D1_2_0" index="0" speed="9.26" length="5.01" shape="370.40,121.60 365.44,120.89"/>
    </edge>
    <edge id=":D1_3" function="internal">
        <lane id=":D1_3_0" index="0" speed="3.65" length="1.44" shape="370.40,121.60 369.20,120.80"/>
    </edge>
    <edge id=":D1_12" function="internal">
        <lane id=":D1_12_0" index="0" speed="9.26" length="14.34" shape="365.44,120.89 365.15,120.85 361.40,118.60 359.15,114.85 358.40,109.60"/>
    </edge>
    <edge id=":D1_13" function="internal">
        <lane id=":D1_13_0" index="0" speed="3.65" length="3.23" shape="369.20,120.80 368.80,120.00 369.20,119.20 370.40,118.40"/>
    </edge>
    <edge id=":D1_4" function="internal">
        <lane id=":D1_4_0" index="0" speed="6.51" length="9.03" shape="364.80,109.60 365.15,112.05 366.20,113.80 367.95,114.85 370.40,115.20"/>
        <lane id=":D1_4_1" index="1" speed="8.00" length="14.19" shape="361.60,109.60 362.15,113.45 363.80,116.20 366.55,117.85 370.40,118.40"/>
    </edge>
    <edge id=":D1_6" function="internal">
        <lane id=":D1_6_0" index="0" speed="9.26" length="19.35" shape="361.60,109.60 360.85,114.85 358.60,118.60 354.85,120.85 349.60,121.60"/>
    </edge>
    <edge id=":D1_7" function="internal">
        <lane id=":D1_7_0" index="0" speed="3.65" length="2.34" shape="361.60,109.60 360.80,110.80 360.00,111.20"/>
    </edge>
    <edge id=":D1_14" function="internal">
        <lane id=":D1_14_0" index="0" speed="3.65" length="2.34" shape="360.00,111.20 359.20,110.80 358.40,109.60"/>
    </edge>
    <edge id=":D1_8" function="internal">
        <lane id=":D1_8_0" index="0" speed="6.51" length="9.03" shape="349.60,115.20 352.05,114.85 353.80,113.80 354.85,112.05 355.20,109.60"/>
    </edge>
    <edge id=":D1_9" function="internal">
        <lane id=":D1_9_0" index="0" speed="13.89" length="20.80" shape="349.60,115.20 370.40,115.20"/>
        <lane id=":D1_9_1" index="1" speed="13.89" length="20.80" shape="349.60,118.40 370.40,118.40"/>
    </edge>
    <edge id=":D1_11" function="internal">
        <lane id=":D1_11_0" index="0" speed="3.65" length="1.44" shape="349.60,118.40 350.80,119.20"/>
    </edge>
    <edge id=":D1_15" function="internal">
        <lane id=":D1_15_0" index="0" speed="3.65" length="3.23" shape="350.80,119.20 351.20,120.00 350.80,120.80 349.60,121.60"/>
    </edge>
    <edge id=":E0_0" function="internal">
        <lane id=":E0_0_0" index="0" speed="6.51" length="9.03" shape="475.20,10.40 474.85,7.95 473.80,6.20 472.05,5.15 469.60,4.80"/>
        <lane id=":E0_0_1" index="1" speed="8.00" length="14.19" shape="478.40,10.40 477.85,6.55 476.20,3.80 473.45,2.15 469.60,1.60"/>
    </edge>
    <edge id=":E0_2" function="internal">
        <lane id=":E0_2_0" index="0" speed="9.26" length="19.35" shape="478.40,10.40 479.15,5.15 481.40,1.40 485.15,-0.85 490.40,-1.60"/>
    </edge>
    <edge id=":E0_3" function="internal">
        <lane id=":E0_3_0" index="0" speed="3.65" length="2.34" shape="478.40,10.40 479.20,9.20 480.00,8.80"/>
    </edge>
    <edge id=":E0_12" function="internal">
        <lane id=":E0_12_0" index="0" speed="3.65" length="2.34" shape="480.00,8.80 480.80,9.20 481.60,10.40"/>
    </edge>
    <edge id=":E0_4" function="internal">
        <lane id=":E0_4_0" index="0" speed="6.51" length="9.03" shape="490.40,4.80 487.95,5.15 486.20,6.20 485.15,7.95 484.80,10.40"/>
    </edge>
    <edge id=":E0_5" function="internal">
        <lane id=":E0_5_0" index="0" speed="13.89" length="20.80" shape="490.40,4.80 469.60,4.80"/>
        <lane id=":E0_5_1" index="1" speed="13.89" length="20.80" shape="490.40,1.60 469.60,1.60"/>
    </edge>
    <edge id=":E0_7" function="internal">
        <lane id=":E0_7_0" index="0" speed="3.65" length="1.44" shape="490.40,1.60 489.20,0.80"/>
    </edge>
    <edge id=":E0_13" function="internal">
        <lane id=":E0_13_0" index="0" speed="3.65" length="3.23" shape="489.20,0.80 488.80,0.00 489.20,-0.80 490.40,-1.60"/>
    </edge>
    <edge id=":E0_8" function="internal">
        <lane id=":E0_8_0" index="0" speed="13.89" length="20.80" shape="469.60,-4.80 490.40,-4.80"/>
        <lane id=":E0_8_1" index="1" speed="13.89" length="20.80" shape="469.60,-1.60 490.40,-1.60"/>
    </edge>
    <edge id=":E0_10" function="internal">
        <lane id=":E0_10_0" index="0" speed="9.26" length="5.01" shape="469.60,-1.60 474.56,-0.89"/>
    </edge>
    <edge id=":E0_11" function="internal">
        <lane id=":E0_11_0" index="0" speed="3.65" length="1.44" shape="469.60,-1.60 470.80,-0.80"/>
    </edge>
    <edge id=":E0_14" function="internal">
        <lane id=":E0_14_0" index="0" speed="9.26" length="14.34" shape="474.56,-0.89 474.85,-0.85 478.60,1.40 480.85,5.15 481.60,10.40"/>
    </edge>
    <edge id=":E0_15" function="internal">
        <lane id=":E0_15_0" index="0" speed="3.65" length="3.23" shape="470.80,-0.80 471.20,0.00 470.80,0.80 469.60,1.60"/>
    </edge>
    <edge id=":E1_0" function="internal">
        <lane id=":E1_0_0" index="0" speed="13.89" length="20.80" shape="490.40,124.80 469.60,124.80"/>
        <lane id=":E1_0_1" index="1" speed="13.89" length="20.80" shape="490.40,121.60 469.60,121.60"/>
    </edge>
    <edge id=":E1_2" function="internal">
        <lane id=":E1_2_0" index="0" speed="9.26" length="5.01" shape="490.40,121.60 485.44,120.89"/>
    </edge>
    <edge id=":E1_3" function="internal">
        <lane id=":E1_3_0" index="0" speed="3.65" length="1.44" shape="490.40,121.60 489.20,120.80"/>
    </edge>
    <edge id=":E1_12" function="internal">
        <lane id=":E1_12_0" index="0" speed="9.26" length="14.34" shape="485.44,120.89 485.15,120.85 481.40,118.60 479.15,114.85 478.40,109.60"/>
    </edge>
    <edge id=":E1_13" function="internal">
        <lane id=":E1_13_0" index="0" speed="3.65" length="3.23" shape="489.20,120.80 488.80,120.00 489.20,119.20 490.40,118.40"/>
    </edge>
    <edge id=":E1_4" function="internal">
        <lane id=":E1_4_0" index="0" speed="6.51" length="9.03" shape="484.80,109.60 485.15,112.05 486.20,113.80 487.95,114.85 490.40,115.20"/>
        <lane id=":E1_4_1" index="1" speed="8.00" length="14.19" shape="481.60,109.60 482.15,113.45 483.80,116.20 486.55,117.85 490.40,118.40"/>
    </edge>
    <edge id=":E1_6" function="internal">
        <lane id=":E1_6_0" index="0" speed="9.26" length="19.35" shape="481.60,109.60 480.85,114.85 478.60,118.60 474.85,120.85 469.60,121.60"/>
    </edge>
    <edge id=":E1_7" function="internal">
        <lane id=":E1_7_0" index="0" speed="3.65" length="2.34" shape="481.60,109.60 480.80,110.80 480.00,111.20"/>
    </edge>
    <edge id=":E1_14" function="internal">
        <lane id=":E1_14_0" index="0" speed="3.65" length="2.34" shape="480.00,111.20 479.20,110.80 478.40,109.60"/>
    </edge>
    <edge id=":E1_8" function="internal">
        <lane id=":E1_8_0" index="0" speed="6.51" length="9.03" shape="469.60,115.20 472.05,114.85 473.80,113.80 474.85,112.05 475.20,109.60"/>
    </edge>
    <edge id=":E1_9" function="internal">
        <lane id=":E1_9_0" index="0" speed="13.89" length="20.80" shape="469.60,115.20 490.40,115.20"/>
        <lane id=":E1_9_1" index="1" speed="13.89" length="20.80" shape="469.60,118.40 490.40,118.40"/>
    </edge>
    <edge id=":E1_11" function="internal">
        <lane id=":E1_11_0" index="0" speed="3.65" length="1.44" shape="469.60,118.40 470.80,119.20"/>
    </edge>
    <edge id=":E1_15" function="internal">
        <lane id=":E1_15_0" index="0" speed="3.65" length="3.23" shape="470.80,119.20 471.20,120.00 470.80,120.80 469.60,121.60"/>
    </edge>
    <edge id=":F0_0" function="internal">
        <lane id=":F0_0_0" index="0" speed="3.90" length="2.58" shape="595.20,6.40 595.10,5.70 594.80,5.20 594.30,4.90 593.60,4.80"/>
        <lane id=":F0_0_1" index="1" speed="6.08" length="7.74" shape="598.40,6.40 598.10,4.30 597.20,2.80 595.70,1.90 593.60,1.60"/>
    </edge>
    <edge id=":F0_2" function="internal">
        <lane id=":F0_2_0" index="0" speed="8.96" length="18.06" shape="593.60,-4.80 598.50,-4.10 602.00,-2.00 604.10,1.50 604.80,6.40"/>
        <lane id=":F0_2_1" index="1" speed="7.66" length="12.90" shape="593.60,-1.60 597.10,-1.10 599.60,0.40 601.10,2.90 601.60,6.40"/>
    </edge>
    <edge id=":F1_0" function="internal">
        <lane id=":F1_0_0" index="0" speed="8.96" length="18.06" shape="604.80,113.60 604.10,118.50 602.00,122.00 598.50,124.10 593.60,124.80"/>
        <lane id=":F1_0_1" index="1" speed="7.66" length="12.90" shape="601.60,113.60 601.10,117.10 599.60,119.60 597.10,121.10 593.60,121.60"/>
    </edge>
    <edge id=":F1_2" function="internal">
        <lane id=":F1_2_0" index="0" speed="3.90" length="2.58" shape="593.60,115.20 594.30,115.10 594.80,114.80 595.10,114.30 595.20,113.60"/>
        <lane id=":F1_2_1" index="1" speed="6.08" length="7.74" shape="593.60,118.40 595.70,118.10 597.20,117.20 598.10,115.70 598.40,113.60"/>
    </edge>

    <edge id="A0A1" from="A0" to="A1" priority="-1">
        <lane id="A0A1_0" index="0" speed="13.89" length="107.20" shape="4.80,6.40 4.80,113.60"/>
        <lane id="A0A1_1" index="1" speed="13.89" length="107.20" shape="1.60,6.40 1.60,113.60"/>
    </edge>
    <edge id="A0B0" from="A0" to="B0" priority="-1">
        <lane id="A0B0_0" index="0" speed="13.89" length="103.20" shape="6.40,-4.80 109.60,-4.80"/>
        <lane id="A0B0_1" index="1" speed="13.89" length="103.20" shape="6.40,-1.60 109.60,-1.60"/>
    </edge>
    <edge id="A1A0" from="A1" to="A0" priority="-1">
        <lane id="A1A0_0" index="0" speed="13.89" length="107.20" shape="-4.80,113.60 -4.80,6.40"/>
        <lane id="A1A0_1" index="1" speed="13.89" length="107.20" shape="-1.60,113.60 -1.60,6.40"/>
    </edge>
    <edge id="A1B1" from="A1" to="B1" priority="-1">
        <lane id="A1B1_0" index="0" speed="13.89" length="103.20" shape="6.40,115.20 109.60,115.20"/>
        <lane id="A1B1_1" index="1" speed="13.89" length="103.20" shape="6.40,118.40 109.60,118.40"/>
    </edge>
    <edge id="B0A0" from="B0" to="A0" priority="-1">
        <lane id="B0A0_0" index="0" speed="13.89" length="103.20" shape="109.60,4.80 6.40,4.80"/>
        <lane id="B0A0_1" index="1" speed="13.89" length="103.20" shape="109.60,1.60 6.40,1.60"/>
    </edge>
    <edge id="B0B1" from="B0" to="B1" priority="-1">
        <lane id="B0B1_0" index="0" speed="13.89" length="99.20" shape="124.80,10.40 124.80,109.60"/>
        <lane id="B0B1_1" index="1" speed="13.89" length="99.20" shape="121.60,10.40 121.60,109.60"/>
    </edge>
    <edge id="B0C0" from="B0" to="C0" priority="-1">
        <lane id="B0C0_0" index="0" speed="13.89" length="99.20" shape="130.40,-4.80 229.60,-4.80"/>
        <lane id="B0C0_1" index="1" speed="13.89" length="99.20" shape="130.40,-1.60 229.60,-1.60"/>
    </edge>
    <edge id="B1A1" from="B1" to="A1" priority="-1">
        <lane id="B1A1_0" index="0" speed="13.89" length="103.20" shape="109.60,124.80 6.40,124.80"/>
        <lane id="B1A1_1" index="1" speed="13.89" length="103.20" shape="109.60,121.60 6.40,121.60"/>
    </edge>
    <edge id="B1B0" from="B1" to="B0" priority="-1">
        <lane id="B1B0_0" index="0" speed="13.89" length="99.20" shape="115.20,109.60 115.20,10.40"/>
        <lane id="B1B0_1" index="1" speed="13.89" length="99.20" shape="118.40,109.60 118.40,10.40"/>
    </edge>
    <edge id="B1C1" from="B1" to="C1" priority="-1">
        <lane id="B1C1_0" index="0" speed="13.89" length="99.20" shape="130.40,115.20 229.60,115.20"/>
        <lane id="B1C1_1" index="1" speed="13.89" length="99.20" shape="130.40,118.40 229.60,118.40"/>
    </edge>
    <edge id="C0B0" from="C0" to="B0" priority="-1">
        <lane id="C0B0_0" index="0" speed="13.89" length="99.20" shape="229.60,4.80 130.40,4.80"/>
        <lane id="C0B0_1" index="1" speed="13.89" length="99.20" shape="229.60,1.60 130.40,1.60"/>
    </edge>
    <edge id="C0C1" from="C0" to="C1" priority="-1">
        <lane id="C0C1_0" index="0" speed="13.89" length="99.20" shape="244.80,10.40 244.80,109.60"/>
        <lane id="C0C1_1" index="1" speed="13.89" length="99.20" shape="241.60,10.40 241.60,109.60"/>
    </edge>
    <edge id="C0D0" from="C0" to="D0" priority="-1">
        <lane id="C0D0_0" index="0" speed="13.89" length="99.20" shape="250.40,-4.80 349.60,-4.80"/>
        <lane id="C0D0_1" index="1" speed="13.89" length="99.20" shape="250.40,-1.60 349.60,-1.60"/>
    </edge>
    <edge id="C1B1" from="C1" to="B1" priority="-1">
        <lane id="C1B1_0" index="0" speed="13.89" length="99.20" shape="229.60,124.80 130.40,124.80"/>
        <lane id="C1B1_1" index="1" speed="13.89" length="99.20" shape="229.60,121.60 130.40,121.60"/>
    </edge>
    <edge id="C1C0" from="C1" to="C0" priority="-1">
        <lane id="C1C0_0" index="0" speed="13.89" length="99.20" shape="235.20,109.60 235.20,10.40"/>
        <lane id="C1C0_1" index="1" speed="13.89" length="99.20" shape="238.40,109.60 238.40,10.40"/>
    </edge>
    <edge id="C1D1" from="C1" to="D1" priority="-1">
        <lane id="C1D1_0" index="0" speed="13.89" length="99.20" shape="250.40,115.20 349.60,115.20"/>
        <lane id="C1D1_1" index="1" speed="13.89" length="99.20" shape="250.40,118.40 349.60,118.40"/>
    </edge>
    <edge id="D0C0" from="D0" to="C0" priority="-1">
        <lane id="D0C0_0" index="0" speed="13.89" length="99.20" shape="349.60,4.80 250.40,4.80"/>
        <lane id="D0C0_1" index="1" speed="13.89" length="99.20" shape="349.60,1.60 250.40,1.60"/>
    </edge>
    <edge id="D0D1" from="D0" to="D1" priority="-1">
        <lane id="D0D1_0" index="0" speed="13.89" length="99.20" shape="364.80,10.40 364.80,109.60"/>
        <lane id="D0D1_1" index="1" speed="13.89" length="99.20" shape="361.60,10.40 361.60,109.60"/>
    </edge>
    <edge id="D0E0" from="D0" to="E0" priority="-1">
        <lane id="D0E0_0" index="0" speed="13.89" length="99.20" shape="370.40,-4.80 469.60,-4.80"/>
        <lane id="D0E0_1" index="1" speed="13.89" length="99.20" shape="370.40,-1.60 469.60,-1.60"/>
    </edge>
    <edge id="D1C1" from="D1" to="C1" priority="-1">
        <lane id="D1C1_0" index="0" speed="13.89" length="99.20" shape="349.60,124.80 250.40,124.80"/>
        <lane id="D1C1_1" index="1" speed="13.89" length="99.20" shape="349.60,121.60 250.40,121.60"/>
    </edge>