<?xml version="1.0" encoding="UTF-8"?>

<!-- generated on 2025-08-14 10:46:01.528007 by randomTrips.py v1_24_0+0000-b72eb3fabc8
<configuration>
    <net-file value="sumo/scenarios/arterial/net.net.xml"/>
    <route-file value="sumo/scenarios/arterial/routes.rou.xml"/>
    <trip-attributes value="departLane=&quot;best&quot; departSpeed=&quot;max&quot;"/>
    <seed value="12"/>
    <end value="900.0"/>
    <period value="2.4"/>
</configuration>
-->

<!-- generated on 2025-08-14 10:46:01 by Eclipse SUMO duarouter Version 1.24.0
<duarouterConfiguration xmlns:xsi="http://www.w3.org/2001/XMLSchema-instance" xsi:noNamespaceSchemaLocation="http://sumo.dlr.de/xsd/duarouterConfiguration.xsd">

    <input>
        <net-file value="sumo/scenarios/arterial/net.net.xml"/>
        <route-files value="trips.trips.xml"/>
    </input>

    <output>
        <output-file value="sumo/scenarios/arterial/routes.rou.xml"/>
        <alternatives-output value="NUL"/>
    </output>

    <time>
        <begin value="0.0"/>
        <end value="900.0"/>
    </time>

    <report>
        <no-warnings value="true"/>
        <ignore-errors value="true"/>
        <no-step-log value="true"/>
    </report>

</duarouterConfiguration>
-->

<routes xmlns:xsi="http://www.w3.org/2001/XMLSchema-instance" xsi:noNamespaceSchemaLocation="http://sumo.dlr.de/xsd/routes_file.xsd">
    <vehicle id="0" depart="0.00" departLane="best" departSpeed="max">
        <route edges="C1D1 D1E1"/>
    </vehicle>
    <vehicle id="1" depart="2.40" departLane="best" departSpeed="max">
        <route edges="D1E1 E1E0 E0D0 D0C0 C0B0 B0A0"/>
    </vehicle>
    <vehicle id="2" depart="4.80" departLane="best" departSpeed="max">
        <route edges="A0A1 A1B1 B1B0 B0C0 C0C1"/>
    </vehicle>
    <vehicle id="3" depart="7.20" departLane="best" departSpeed="max">
        <route edges="B1B0 B0C0 C0D0 D0E0 E0E1 E1D1"/>
    </vehicle>
    <vehicle id="4" depart="9.60" departLane="best" departSpeed="max">
        <route edges="E0D0 D0D1 D1C1"/>
    </vehicle>
    <vehicle id="5" depart="12.00" departLane="best" departSpeed="max">
        <route edges="D0D1 D1E1"/>
    </vehicle>
    <vehicle id="6" depart="14.40" departLane="best" departSpeed="max">
        <route edges="B0A0 A0A1 A1B1 B1C1 C1C0"/>
    </vehicle>
    <vehicle id="7" depart="16.80" departLane="best" departSpeed="max">
        <route edges="B0B1 B1C1 C1D1 D1E1 E1F1 F1F0 F0E0"/>
    </vehicle>
    <vehicle id="8" depart="19.20" departLane="best" departSpeed="max">
        <route edges="A0B0 B0C0 C0D0 D0D1 D1E1 E1E0"/>
    </vehicle>
    <vehicle id="9" depart="21.60" departLane="best" departSpeed="max">
        <route edges="A1A0 A0B0 B0C0 C0D0 D0D1 D1E1"/>
    </vehicle>
    <vehicle id="10" depart="24.00" departLane="best" departSpeed="max">
        <route edges="C0B0 B0C0 C0D0"/>
    </vehicle>
    <vehicle id="11" depart="26.40" departLane="best" departSpeed="max">
        <route edges="E1E0 E0D0 D0C0 C0B0 B0A0 A0A1"/>
    </vehicle>
    <vehicle id="12" depart="28.80" departLane="best" departSpeed="max">
        <route edges="A0B0 B0C0 C0D0 D0E0 E0F0 F0F1"/>
    </vehicle>
    <vehicle id="13" depart="31.20" departLane="best" departSpeed="max">
        <route edges="D0C0 C0B0 B0B1 B1A1 A1A0"/>
    </vehicle>
    <vehicle id="14" depart="33.60" departLane="best" departSpeed="max">
        <route edges="F1F0 F0E0 E0F0 F0F1 F1E1"/>
    </vehicle>
    <vehicle id="15" depart="36.00" departLane="best" departSpeed="max">
        <route edges="A1B1 B1C1 C1B1"/>
    </vehicle>
    <vehicle id="16" depart="38.40" departLane="best" departSpeed="max">
        <route edges="B0A0 A0A1 A1B1 B1C1 C1C0 C0B0"/>
    </vehicle>
    <vehicle id="17" depart="40.80" departLane="best" departSpeed="max">
        <route edges="D1C1 C1C0 C0B0 B0B1"/>
    </vehicle>
    <vehicle id="18" depart="43.20" departLane="best" departSpeed="max">
        <route edges="E0D0 D0C0 C0B0 B0B1 B1A1 A1A0 A0B0"/>
    </vehicle>
    <vehicle id="19" depart="45.60" departLane="best" departSpeed="max">
        <route edges="B0B1 B1C1 C1D1 D1E1 E1E0"/>
    </vehicle>
    <vehicle id="20" depart="48.00" departLane="best" departSpeed="max">
        <route edges="C0D0 D0D1 D1C1 C1B1"/>
    </vehicle>
    <vehicle id="21" depart="50.40" departLane="best" departSpeed="max">
        <route edges="D1C1 C1D1"/>
    </vehicle>
    <vehicle id="22" depart="52.80" departLane="best" departSpeed="max">
        <route edges="C0D0 D0C0 C0B0 B0A0 A0A1"/>
    </vehicle>
    <vehicle id="23" depart="55.20" departLane="best" departSpeed="max">
        <route edges="E0E1 E1E0 E0F0 F0F1 F1E1"/>
    </vehicle>
    <vehicle id="24" depart="57.60" departLane="best" departSpeed="max">
        <route edges="F1F0 F0E0 E0D0 D0D1 D1E1"/>
    </vehicle>
    <vehicle id="25" depart="60.00" departLane="best" departSpeed="max">
        <route edges="C0C1"/>
    </vehicle>
    <vehicle id="26" depart="62.40" departLane="best" departSpeed="max">
        <route edges="E0D0 D0D1 D1E1"/>
    </vehicle>
    <vehicle id="27" depart="64.80" departLane="best" departSpeed="max">
        <route edges="A1B1 B1A1"/>
    </vehicle>
    <vehicle id="28" depart="67.20" departLane="best" departSpeed="max">
        <route edges="C0C1 C1D1 D1D0 D0C0"/>
    </vehicle>
    <vehicle id="29" depart="69.60" departLane="best" departSpeed="max">
        <route edges="E1D1 D1D0 D0C0"/>
    </vehicle>
    <vehicle id="30" depart="72.00" departLane="best" departSpeed="max">
        <route edges="A0A1 A1B1 B1C1 C1D1 D1E1 E1E0"/>
    </vehicle>
    <vehicle id="31" depart="74.40" departLane="best" departSpeed="max">
        <route edges="C1B1 B1C1 C1D1 D1D0 D0C0"/>
    </vehicle>
    <vehicle id="32" depart="76.80" departLane="best" departSpeed="max">
        <route edges="B1A1 A1A0 A0B0 B0C0 C0C1 C1B1"/>
    </vehicle>
    <vehicle id="33" depart="79.20" departLane="best" departSpeed="max">
        <route edges="C0D0 D0E0 E0F0"/>
    </vehicle>
    <vehicle id="34" depart="81.60" departLane="best" departSpeed="max">
        <route edges="A1B1 B1B0 B0C0 C0D0 D0D1"/>
    </vehicle>
    <vehicle id="35" depart="84.00" departLane="best" departSpeed="max">
        <route edges="B0B1 B1C1 C1D1 D1E1 E1E0 E0D0"/>
    </vehicle>
    <vehicle id="36" depart="86.40" departLane="best" departSpeed="max">
        <route edges="A0B0 B0B1 B1B0"/>
    </vehicle>
    <vehicle id="37" depart="88.80" departLane="best" departSpeed="max">
        <route edges="C0C1 C1D1 D1D0"/>
    </vehicle>
    <vehicle id="38" depart="91.20" departLane="best" departSpeed="max">
        <route edges="A0B0 B0B1 B1C1 C1C0"/>
    </vehicle>
    <vehicle id="39" depart="93.60" departLane="best" departSpeed="max">
        <route edges="B0C0 C0B0 B0B1 B1C1"/>
    </vehicle>
    <vehicle id="40" depart="96.00" departLane="best" departSpeed="max">
        <route edges="C1D1 D1E1 E1E0 E0F0 F0F1 F1E1"/>
    </vehicle>
    <vehicle id="41" depart="98.40" departLane="best" departSpeed="max">
        <route edges="C1D1 D1E1 E1E0 E0F0 F0F1 F1E1"/>
    </vehicle>
    <vehicle id="42" depart="100.80" departLane="best" departSpeed="max">
        <route edges="B0B1 B1C1 C1D1 D1E1 E1E0 E0F0 F0F1"/>
    </vehicle>
    <vehicle id="43" depart="103.20" departLane="best" departSpeed="max">
        <route edges="C0C1 C1B1 B1B0 B0C0"/>
    </vehicle>
    <vehicle id="44" depart="105.60" departLane="best" departSpeed="max">
        <route edges="E0E1 E1E0 E0F0 F0F1"/>
    </vehicle>
    <vehicle id="45" depart="108.00" departLane="best" departSpeed="max">
        <route edges="A0A1 A1B1 B1B0"/>
    </vehicle>
    <vehicle id="46" depart="110.40" departLane="best" departSpeed="max">
        <route edges="E0F0 F0F1 F1E1 E1D1 D1C1 C1C0 C0B0"/>
    </vehicle>
    <vehicle id="47" depart="112.80" departLane="best" departSpeed="max">
        <route edges="B1A1 A1A0 A0B0 B0A0 A0A1"/>
    </vehicle>
    <vehicle id="48" depart="115.20" departLane="best" departSpeed="max">
        <route edges="A0B0 B0C0 C0D0 D0D1 D1C1"/>
    </vehicle>
    <vehicle id="49" depart="117.60" departLane="best" departSpeed="max">
        <route edges="F1F0"/>
    </vehicle>
    <vehicle id="50" depart="120.00" departLane="best" departSpeed="max">
        <route edges="D0C0 C0B0 B0A0 A0A1"/>
    </vehicle>
    <vehicle id="51" depart="122.40" departLane="best" departSpeed="max">
        <route edges="C0B0 B0B1 B1C1 C1D1 D1E1 E1D1"/>
    </vehicle>
    <vehicle id="52" depart="124.80" departLane="best" departSpeed="max">
        <route edges="E1E0 E0D0 D0D1 D1D0"/>
    </vehicle>
    <vehicle id="53" depart="127.20" departLane="best" departSpeed="max">
        <route edges="B1A1 A1A0 A0B0 B0C0 C0D0 D0C0"/>
    </vehicle>
    <vehicle id="54" depart="129.60" departLane="best" departSpeed="max">
        <route edges="C1D1 D1D0"/>
    </vehicle>
    <vehicle id="55" depart="132.00" departLane="best" departSpeed="max">
        <route edges="B1B0 B0C0 C0D0 D0E0 E0F0 F0F1 F1E1"/>
    </vehicle>
    <vehicle id="56" depart="134.40" departLane="best" departSpeed="max">
        <route edges="F0E0 E0D0 D0C0 C0B0 B0B1"/>
    </vehicle>
    <vehicle id="57" depart="136.80" departLane="best" departSpeed="max">
        <route edges="B1C1 C1D1 D1E1 E1F1"/>
    </vehicle>
    <vehicle id="58" depart="139.20" departLane="best" departSpeed="max">
        <route edges="B1B0 B0C0 C0D0 D0E0 E0F0 F0F1 F1E1"/>
    </vehicle>
    <vehicle id="59" depart="141.60" departLane="best" departSpeed="max">
        <route edges="D0C0 C0D0 D0E0 E0D0"/>
    </vehicle>
    <vehicle id="60" depart="144.00" departLane="best" departSpeed="max">
        <route edges="E0D0 D0C0 C0B0 B0C0"/>
    </vehicle>
    <vehicle id="61" depart="146.40" departLane="best" departSpeed="max">
        <route edges="B1C1 C1B1 B1B0"/>
    </vehicle>
    <vehicle id="62" depart="148.80" departLane="best" departSpeed="max">
        <route edges="D1E1 E1E0 E0D0"/>
    </vehicle>
    <vehicle id="63" depart="151.20" departLane="best" departSpeed="max">
        <route edges="B0A0 A0A1 A1B1 B1C1 C1D1 D1E1 E1F1 F1F0 F0E0"/>
    </vehicle>
    <vehicle id="64" depart="153.60" departLane="best" departSpeed="max">
        <route edges="C1B1 B1A1"/>
    </vehicle>
    <vehicle id="65" depart="156.00" departLane="best" departSpeed="max">
        <route edges="C1B1 B1C1 C1D1 D1E1 E1F1 F1F0"/>
    </vehicle>
    <vehicle id="66" depart="158.40" departLane="best" departSpeed="max">
        <route edges="D0D1 D1C1"/>
    </vehicle>
    <vehicle id="67" depart="160.80" departLane="best" departSpeed="max">
        <route edges="F0F1 F1E1"/>
    </vehicle>
    <vehicle id="68" depart="163.20" departLane="best" departSpeed="max">
        <route edges="E0F0 F0F1 F1E1 E1D1 D1C1 C1B1"/>
    </vehicle>
    <vehicle id="69" depart="165.60" departLane="best" departSpeed="max">
        <route edges="D0E0 E0E1 E1F1 F1F0 F0E0"/>
    </vehicle>
    <vehicle id="70" depart="168.00" departLane="best" departSpeed="max">
        <route edges="E1D1 D1D0 D0E0"/>
    </vehicle>
    <vehicle id="71" depart="170.40" departLane="best" departSpeed="max">
        <route edges="C0C1"/>
    </vehicle>
    <vehicle id="72" depart="172.80" departLane="best" departSpeed="max">
        <route edges="E0E1 E1D1 D1D0 D0E0"/>
    </vehicle>
    <vehicle id="73" depart="175.20" departLane="best" departSpeed="max">
        <route edges="A0A1 A1B1 B1C1 C1D1 D1E1 E1E0 E0D0"/>
    </vehicle>
    <vehicle id="74" depart="177.60" departLane="best" departSpeed="max">
        <route edges="F0E0 E0E1 E1D1"/>
    </vehicle>
    <vehicle id="75" depart="180.00" departLane="best" departSpeed="max">
        <route edges="F0E0 E0F0 F0F1"/>
    </vehicle>
    <vehicle id="76" depart="182.40" departLane="best" departSpeed="max">
        <route edges="D0D1 D1E1 E1D1"/>
    </vehicle>
    <vehicle id="77" depart="184.80" departLane="best" departSpeed="max">
        <route edges="C0D0 D0C0 C0B0 B0A0 A0A1 A1B1"/>
    </vehicle>
    <vehicle id="78" depart="187.20" departLane="best" departSpeed="max">
        <route edges="C0C1 C1B1 B1C1"/>
    </vehicle>
    <vehicle id="79" depart="189.60" departLane="best" departSpeed="max">
        <route edges="F0F1 F1E1 E1E0 E0D0"/>
    </vehicle>
    <vehicle id="80" depart="192.00" departLane="best" departSpeed="max">
        <route edges="D0D1 D1C1"/>
    </vehicle>
    <vehicle id="81" depart="194.40" departLane="best" departSpeed="max">
        <route edges="A1B1 B1B0 B0C0 C0D0 D0D1"/>
    </vehicle>
    <vehicle id="82" depart="196.80" departLane="best" departSpeed="max">
        <route edges="E0D0 D0C0 C0D0"/>
    </vehicle>
    <vehicle id="83" depart="199.20" departLane="best" departSpeed="max">
        <route edges="B1A1 A1A0 A0B0 B0C0 C0C1 C1B1"/>
    </vehicle>
    <vehicle id="84" depart="201.60" departLane="best" departSpeed="max">
        <route edges="C0B0 B0B1 B1C1 C1D1 D1E1"/>
    </vehicle>
    <vehicle id="85" depart="204.00" departLane="best" departSpeed="max">
        <route edges="B0A0 A0A1 A1B1 B1A1 A1A0"/>
    </vehicle>
    <vehicle id="86" depart="206.40" departLane="best" departSpeed="max">
        <route edges="B1C1 C1D1 D1E1 E1E0 E0D0"/>
    </vehicle>
    <vehicle id="87" depart="208.80" departLane="best" departSpeed="max">
        <route edges="E0F0 F0F1 F1E1 E1D1 D1E1"/>
    </vehicle>
    <vehicle id="88" depart="211.20" departLane="best" departSpeed="max">
        <route edges="F0F1 F1E1 E1D1 D1D0 D0C0 C0C1"/>
    </vehicle>
    <vehicle id="89" depart="213.60" departLane="best" departSpeed="max">
        <route edges="A0A1 A1B1 B1C1 C1D1"/>
    </vehicle>
    <vehicle id="90" depart="216.00" departLane="best" departSpeed="max">
        <route edges="C1C0 C0B0 B0B1"/>
    </vehicle>
    <vehicle id="91" depart="218.40" departLane="best" departSpeed="max">
        <route edges="D1E1 E1E0 E0D0 D0C0 C0B0"/>
    </vehicle>
    <vehicle id="92" depart="220.80" departLane="best" departSpeed="max">
        <route edges="B1A1 A1A0 A0B0 B0C0 C0B0"/>
    </vehicle>
    <vehicle id="93" depart="223.20" departLane="best" departSpeed="max">
        <route edges="F1E1 E1D1 D1C1 C1B1 B1B0 B0A0 A0A1"/>
    </vehicle>
    <vehicle id="94" depart="225.60" departLane="best" departSpeed="max">
        <route edges="C0C1 C1B1 B1B0"/>
    </vehicle>
    <vehicle id="95" depart="228.00" departLane="best" departSpeed="max">
        <route edges="B0C0 C0C1 C1B1"/>
    </vehicle>
    <vehicle id="96" depart="230.40" departLane="best" departSpeed="max">
        <route edges="B1A1 A1A0 A0B0 B0C0 C0D0 D0E0 E0F0 F0F1"/>
    </vehicle>
    <vehicle id="97" depart="232.80" departLane="best" departSpeed="max">
        <route edges="D0C0 C0D0 D0E0 E0D0"/>
    </vehicle>
    <vehicle id="98" depart="235.20" departLane="best" departSpeed="max">
        <route edges="B0B1 B1C1 C1C0"/>
    </vehicle>
    <vehicle id="99" depart="237.60" departLane="best" departSpeed="max">
        <route edges="D1C1 C1D1 D1E1 E1E0"/>
    </vehicle>
    <vehicle id="100" depart="240.00" departLane="best" departSpeed="max">
        <route edges="B1A1 A1A0 A0B0 B0B1 B1C1 C1C0"/>
    </vehicle>
    <vehicle id="101" depart="242.40" departLane="best" departSpeed="max">
        <route edges="E1F1 F1F0 F0E0 E0E1 E1E0"/>
    </vehicle>
    <vehicle id="102" depart="244.80" departLane="best" departSpeed="max">
        <route edges="B1A1 A1A0 A0B0 B0C0 C0D0 D0D1"/>
    </vehicle>
    <vehicle id="103" depart="247.20" departLane="best" departSpeed="max">
        <route edges="E0F0 F0F1 F1E1 E1D1 D1C1 C1C0 C0D0"/>
    </vehicle>
    <vehicle id="104" depart="249.60" departLane="best" departSpeed="max">
        <route edges="D1E1"/>
    </vehicle>
    <vehicle id="105" depart="252.00" departLane="best" departSpeed="max">
        <route edges="F1F0 F0E0 E0D0 D0D1"/>
    </vehicle>
    <vehicle id="106" depart="254.40" departLane="best" departSpeed="max">
        <route edges="D1E1 E1E0 E0D0 D0C0 C0C1"/>
    </vehicle>
    <vehicle id="107" depart="256.80" departLane="best" departSpeed="max">
        <route edges="E0E1 E1D1 D1C1 C1C0 C0B0"/>
    </vehicle>
    <vehicle id="108" depart="259.20" departLane="best" departSpeed="max">
        <route edges="C1D1 D1D0 D0C0 C0C1"/>
    </vehicle>
    <vehicle id="109" depart="261.60" departLane="best" departSpeed="max">
        <route edges="B1C1 C1C0 C0B0 B0A0"/>
    </vehicle>
    <vehicle id="110" depart="264.00" departLane="best" departSpeed="max">
        <route edges="B1A1 A1A0 A0B0 B0C0 C0D0 D0D1"/>
    </vehicle>
    <vehicle id="111" depart="266.40" departLane="best" departSpeed="max">
        <route edges="B1B0 B0B1 B1A1 A1A0 A0B0"/>
    </vehicle>
    <vehicle id="112" depart="268.80" departLane="best" departSpeed="max">
        <route edges="E1D1 D1C1 C1B1 B1C1"/>
    </vehicle>
    <vehicle id="113" depart="271.20" departLane="best" departSpeed="max">
        <route edges="F0F1 F1E1 E1D1 D1C1"/>
    </vehicle>
    <vehicle id="114" depart="273.60" departLane="best" departSpeed="max">
        <route edges="C0D0 D0E0 E0E1 E1F1"/>
    </vehicle>
    <vehicle id="115" depart="276.00" departLane="best" departSpeed="max">
        <route edges="F0E0 E0D0 D0C0 C0B0"/>
    </vehicle>
    <vehicle id="116" depart="278.40" departLane="best" departSpeed="max">
        <route edges="B0A0 A0A1 A1B1 B1C1 C1D1 D1D0"/>
    </vehicle>
    <vehicle id="117" depart="280.80" departLane="best" departSpeed="max">
        <route edges="E1E0 E0D0 D0D1 D1C1"/>
    </vehicle>
    <vehicle id="118" depart="283.20" departLane="best" departSpeed="max">
        <route edges="E1D1 D1C1 C1B1"/>
    </vehicle>
    <vehicle id="119" depart="285.60" departLane="best" departSpeed="max">
        <route edges="D1C1 C1B1 B1B0"/>
    </vehicle>
    <vehicle id="120" depart="288.00" departLane="best" departSpeed="max">
        <route edges="C1B1 B1B0 B0C0 C0D0"/>
    </vehicle>
    <vehicle id="121" depart="290.40" departLane="best" departSpeed="max">
        <route edges="C0D0"/>
    </vehicle>
    <vehicle id="122" depart="292.80" departLane="best" departSpeed="max">
        <route edges="E1D1 D1C1 C1C0 C0B0 B0B1"/>
    </vehicle>
    <vehicle id="123" depart="295.20" departLane="best" departSpeed="max">
        <route edges="B0C0 C0C1 C1B1 B1B0"/>
    </vehicle>
    <vehicle id="124" depart="297.60" departLane="best" departSpeed="max">
        <route edges="F1F0 F0E0 E0D0 D0C0"/>
    </vehicle>
    <vehicle id="125" depart="300.00" departLane="best" departSpeed="max">
        <route edges="A0B0 B0C0 C0D0 D0D1 D1E1 E1E0"/>
    </vehicle>
    <vehicle id="126" depart="302.40" departLane="best" departSpeed="max">
        <route edges="E1F1 F1F0 F0E0 E0E1 E1E0"/>
    </vehicle>
    <vehicle id="127" depart="304.80" departLane="best" departSpeed="max">
        <route edges="C0C1 C1D1 D1D0 D0E0 E0E1"/>
    </vehicle>
    <vehicle id="128" depart="307.20" departLane="best" departSpeed="max">
        <route edges="B1C1 C1C0 C0B0 B0A0"/>
    </vehicle>
    <vehicle id="129" depart="309.60" departLane="best" departSpeed="max">
        <route edges="E1F1 F1F0 F0E0 E0E1 E1E0"/>
    </vehicle>
    <vehicle id="130" depart="312.00" departLane="best" departSpeed="max">
        <route edges="B0C0 C0D0 D0E0 E0E1 E1F1 F1F0 F0E0"/>
    </vehicle>
    <vehicle id="131" depart="314.40" departLane="best" departSpeed="max">
        <route edges="A0A1 A1B1 B1C1"/>
    </vehicle>
    <vehicle id="132" depart="316.80" departLane="best" departSpeed="max">
        <route edges="A0A1 A1B1 B1B0 B0B1"/>
    </vehicle>
    <vehicle id="133" depart="319.20" departLane="best" departSpeed="max">
        <route edges="B0B1 B1C1 C1D1 D1E1 E1E0 E0D0"/>
    </vehicle>
    <vehicle id="134" depart="321.60" departLane="best" departSpeed="max">
        <route edges="B1C1 C1C0 C0B0 B0C0"/>
    </vehicle>
    <vehicle id="135" depart="324.00" departLane="best" departSpeed="max">
        <route edges="B0B1 B1C1"/>
    </vehicle>
    <vehicle id="136" depart="326.40" departLane="best" departSpeed="max">
        <route edges="E1F1 F1F0 F0E0 E0D0 D0D1 D1C1"/>
    </vehicle>
    <vehicle id="137" depart="328.80" departLane="best" departSpeed="max">
        <route edges="A1B1 B1C1 C1D1 D1E1"/>
    </vehicle>
    <vehicle id="138" depart="331.20" departLane="best" departSpeed="max">
        <route edges="D0D1 D1C1 C1C0"/>
    </vehicle>
    <vehicle id="139" depart="333.60" departLane="best" departSpeed="max">
        <route edges="D0C0 C0C1 C1D1 D1D0"/>
    </vehicle>
    <vehicle id="140" depart="336.00" departLane="best" departSpeed="max">
        <route edges="E1D1 D1D0 D0C0"/>
    </vehicle>
    <vehicle id="141" depart="338.40" departLane="best" departSpeed="max">
        <route edges="D1D0 D0C0 C0C1 C1C0"/>
    </vehicle>
    <vehicle id="142" depart="340.80" departLane="best" departSpeed="max">
        <route edges="D1D0 D0C0 C0D0"/>
    </vehicle>
    <vehicle id="143" depart="343.20" departLane="best" departSpeed="max">
        <route edges="C1B1 B1C1 C1D1 D1D0 D0C0"/>
    </vehicle>
    <vehicle id="144" depart="345.60" departLane="best" departSpeed="max">
        <route edges="E0D0 D0C0 C0C1 C1B1 B1B0"/>
    </vehicle>
    <vehicle id="145" depart="348.00" departLane="best" departSpeed="max">
        <route edges="F0F1 F1E1 E1D1 D1C1 C1D1"/>
    </vehicle>
    <vehicle id="146" depart="350.40" departLane="best" departSpeed="max">
        <route edges="E1F1 F1F0 F0E0 E0D0"/>
    </vehicle>
    <vehicle id="147" depart="352.80" departLane="best" departSpeed="max">
        <route edges="F1E1 E1D1 D1E1"/>
    </vehicle>
    <vehicle id="148" depart="355.20" departLane="best" departSpeed="max">
        <route edges="C1B1 B1B0 B0C0 C0D0"/>
    </vehicle>
    <vehicle id="149" depart="357.60" departLane="best" departSpeed="max">
        <route edges="D1C1 C1C0 C0D0 D0E0 E0F0"/>
    </vehicle>
    <vehicle id="150" depart="360.00" departLane="best" departSpeed="max">
        <route edges="E1E0 E0D0 D0C0 C0B0 B0A0"/>
    </vehicle>
    <vehicle id="151" depart="362.40" departLane="best" departSpeed="max">
        <route edges="A0B0 B0A0 A0A1 A1B1"/>
    </vehicle>
    <vehicle id="152" depart="364.80" departLane="best" departSpeed="max">
        <route edges="A1A0 A0B0"/>
    </vehicle>
    <vehicle id="153" depart="367.20" departLane="best" departSpeed="max">
        <route edges="A0A1 A1B1 B1A1"/>
    </vehicle>
    <vehicle id="154" depart="369.60" departLane="best" departSpeed="max">
        <route edges="A1B1 B1C1 C1D1 D1E1"/>
    </vehicle>
    <vehicle id="155" depart="372.00" departLane="best" departSpeed="max">
        <route edges="D1C1 C1C0 C0D0 D0E0 E0F0 F0F1 F1E1"/>
    </vehicle>
    <vehicle id="156" depart="374.40" departLane="best" departSpeed="max">
        <route edges="F1E1 E1E0 E0E1"/>
    </vehicle>
    <vehicle id="157" depart="376.80" departLane="best" departSpeed="max">
        <route edges="F1E1 E1D1 D1C1 C1B1 B1B0 B0A0 A0A1"/>
    </vehicle>
    <vehicle id="158" depart="379.20" departLane="best" departSpeed="max">
        <route edges="B1A1 A1A0 A0B0 B0C0 C0D0 D0E0 E0F0 F0F1"/>
    </vehicle>
    <vehicle id="159" depart="381.60" departLane="best" departSpeed="max">
        <route edges="C1D1 D1D0 D0C0 C0B0 B0C0"/>
    </vehicle>
    <vehicle id="160" depart="384.00" departLane="best" departSpeed="max">
        <route edges="E0F0 F0F1 F1E1 E1D1 D1C1 C1B1"/>
    </vehicle>
    <vehicle id="161" depart="386.40" departLane="best" departSpeed="max">
        <route edges="D0D1 D1C1 C1C0 C0B0"/>
    </vehicle>
    <vehicle id="162" depart="388.80" departLane="best" departSpeed="max">
        <route edges="B1A1 A1A0"/>
    </vehicle>
    <vehicle id="163" depart="391.20" departLane="best" departSpeed="max">
        <route edges="D1C1 C1C0 C0D0 D0E0 E0F0 F0F1 F1E1"/>
    </vehicle>
    <vehicle id="164" depart="393.60" departLane="best" departSpeed="max">
        <route edges="F1F0 F0E0 E0F0"/>
    </vehicle>
    <vehicle id="165" depart="396.00" departLane="best" departSpeed="max">
        <route edges="F0F1 F1E1 E1D1 D1D0 D0C0 C0C1"/>
    </vehicle>
    <vehicle id="166" depart="398.40" departLane="best" departSpeed="max">
        <route edges="B1C1 C1D1 D1E1 E1E0 E0F0 F0F1"/>
    </vehicle>
    <vehicle id="167" depart="400.80" departLane="best" departSpeed="max">
        <route edges="D1C1 C1D1 D1E1"/>
    </vehicle>
    <vehicle id="168" depart="403.20" departLane="best" departSpeed="max">
        <route edges="A0A1 A1B1 B1A1"/>
    </vehicle>
    <vehicle id="169" depart="405.60" departLane="best" departSpeed="max">
        <route edges="C1D1 D1D0 D0E0 E0E1"/>
    </vehicle>
    <vehicle id="170" depart="408.00" departLane="best" departSpeed="max">
        <route edges="E1E0 E0F0"/>
    </vehicle>
    <vehicle id="171" depart="410.40" departLane="best" departSpeed="max">
        <route edges="C0B0 B0C0 C0D0"/>
    </vehicle>
    <vehicle id="172" depart="412.80" departLane="best" departSpeed="max">
        <route edges="E1F1 F1F0"/>
    </vehicle>
    <vehicle id="173" depart="415.20" departLane="best" departSpeed="max">
        <route edges="C1D1 D1D0 D0C0 C0B0 B0C0"/>
    </vehicle>
    <vehicle id="174" depart="417.60" departLane="best" departSpeed="max">
        <route edges="D1C1 C1C0 C0D0 D0D1"/>
    </vehicle>
    <vehicle id="175" depart="420.00" departLane="best" departSpeed="max">
        <route edges="C0C1 C1B1 B1A1"/>
    </vehicle>
    <vehicle id="176" depart="422.40" departLane="best" departSpeed="max">
        <route edges="C0D0 D0D1 D1C1"/>
    </vehicle>
    <vehicle id="177" depart="424.80" departLane="best" departSpeed="max">
        <route edges="B0A0 A0A1 A1B1 B1C1 C1C0 C0D0 D0D1"/>
    </vehicle>
    <vehicle id="178" depart="427.20" departLane="best" departSpeed="max">
        <route edges="F1E1 E1E0 E0E1"/>
    </vehicle>
    <vehicle id="179" depart="429.60" departLane="best" departSpeed="max">
        <route edges="B1B0 B0C0 C0C1 C1B1"/>
    </vehicle>
    <vehicle id="180" depart="432.00" departLane="best" departSpeed="max">
        <route edges="A1B1 B1C1 C1D1 D1D0 D0E0 E0E1"/>
    </vehicle>
    <vehicle id="181" depart="434.40" departLane="best" departSpeed="max">
        <route edges="D1D0 D0C0 C0B0 B0B1"/>
    </vehicle>
    <vehicle id="182" depart="436.80" departLane="best" departSpeed="max">
        <route edges="D0D1 D1C1"/>
    </vehicle>
    <vehicle id="183" depart="439.20" departLane="best" departSpeed="max">
        <route edges="D0E0 E0D0 D0C0 C0D0"/>
    </vehicle>
    <vehicle id="184" depart="441.60" departLane="best" departSpeed="max">
        <route edges="B1C1 C1C0 C0C1"/>
    </vehicle>
    <vehicle id="185" depart="444.00" departLane="best" departSpeed="max">
        <route edges="F1F0 F0E0 E0D0 D0C0 C0B0"/>
    </vehicle>
    <vehicle id="186" depart="446.40" departLane="best" departSpeed="max">
        <route edges="D0C0 C0C1 C1C0"/>
    </vehicle>
    <vehicle id="187" depart="448.80" departLane="best" departSpeed="max">
        <route edges="B0B1 B1C1 C1C0 C0D0"/>
    </vehicle>
    <vehicle id="188" depart="451.20" departLane="best" departSpeed="max">
        <route edges="B0C0 C0B0"/>
    </vehicle>
    <vehicle id="189" depart="453.60" departLane="best" departSpeed="max">
        <route edges="C0C1"/>
    </vehicle>
    <vehicle id="190" depart="456.00" departLane="best" departSpeed="max">
        <route edges="F1E1 E1D1 D1C1 C1B1 B1C1"/>
    </vehicle>
    <vehicle id="191" depart="458.40" departLane="best" departSpeed="max">
        <route edges="C0B0 B0B1 B1C1 C1D1 D1E1"/>
    </vehicle>
    <vehicle id="192" depart="460.80" departLane="best" departSpeed="max">
        <route edges="C0D0 D0C0"/>
    </vehicle>
    <vehicle id="193" depart="463.20" departLane="best" departSpeed="max">
        <route edges="D1D0 D0C0 C0B0 B0B1 B1A1 A1A0"/>
    </vehicle>
    <vehicle id="194" depart="465.60" departLane="best" departSpeed="max">
        <route edges="D1E1 E1E0 E0D0 D0C0 C0B0 B0A0 A0A1 A1B1"/>
    </vehicle>
    <vehicle id="195" depart="468.00" departLane="best" departSpeed="max">
        <route edges="B1B0 B0C0 C0D0 D0E0 E0E1 E1D1"/>
    </vehicle>
    <vehicle id="196" depart="470.40" departLane="best" departSpeed="max">
        <route edges="F1F0 F0E0 E0D0 D0D1 D1E1"/>
    </vehicle>
    <vehicle id="197" depart="472.80" departLane="best" departSpeed="max">
        <route edges="B0B1 B1C1 C1C0"/>
    </vehicle>
    <vehicle id="198" depart="475.20" departLane="best" departSpeed="max">
        <route edges="B1C1 C1D1 D1E1 E1E0"/>
    </vehicle>
    <vehicle id="199" depart="477.60" departLane="best" departSpeed="max">
        <route edges="B1A1 A1A0 A0B0 B0C0"/>
    </vehicle>
    <vehicle id="200" depart="480.00" departLane="best" departSpeed="max">
        <route edges="D1D0"/>
    </vehicle>
    <vehicle id="201" depart="482.40" departLane="best" departSpeed="max">
        <route edges="D0E0 E0D0 D0C0 C0C1 C1D1"/>
    </vehicle>
    <vehicle id="202" depart="484.80" departLane="best" departSpeed="max">
        <route edges="F1E1 E1D1 D1C1 C1C0"/>
    </vehicle>
    <vehicle id="203" depart="487.20" departLane="best" departSpeed="max">
        <route edges="F0F1 F1E1 E1D1 D1C1 C1C0 C0D0"/>
    </vehicle>
    <vehicle id="204" depart="489.60" departLane="best" departSpeed="max">
        <route edges="C1C0 C0C1"/>
    </vehicle>
    <vehicle id="205" depart="492.00" departLane="best" departSpeed="max">
        <route edges="E0D0 D0E0 E0F0"/>
    </vehicle>
    <vehicle id="206" depart="494.40" departLane="best" departSpeed="max">
        <route edges="B1A1 A1A0 A0B0 B0C0 C0D0 D0C0"/>
    </vehicle>
    <vehicle id="207" depart="496.80" departLane="best" departSpeed="max">
        <route edges="E0E1 E1D1 D1D0 D0C0"/>
    </vehicle>
    <vehicle id="208" depart="499.20" departLane="best" departSpeed="max">
        <route edges="D1E1 E1D1 D1C1"/>
    </vehicle>
    <vehicle id="209" depart="501.60" departLane="best" departSpeed="max">
        <route edges="E0D0 D0C0 C0C1"/>
    </vehicle>
    <vehicle id="210" depart="504.00" departLane="best" departSpeed="max">