<?xml version="1.0" encoding="UTF-8"?>

<!-- generated on 2025-08-11 18:02:50 by Eclipse SUMO netedit Version 1.19.0
<configuration xmlns:xsi="http://www.w3.org/2001/XMLSchema-instance" xsi:noNamespaceSchemaLocation="http://sumo.dlr.de/xsd/neteditConfiguration.xsd">

    <input>
        <sumocfg-file value="C:\Users\oswal\Desktop\ITLA\IA Distribuida\sumo-federado\Test\1_arista_simulation.sumocfg"/>
        <route-files value="C:\Users\oswal\Desktop\ITLA\IA Distribuida\sumo-federado\Test\1_arista_simulation.rou.xml"/>
        <sumo-net-file value="C:\Users\oswal\Desktop\ITLA\IA Distribuida\sumo-federado\Test\1_arista_simulation.net.xml"/>
    </input>

    <output>
        <output-file value="C:\Users\oswal\Desktop\ITLA\IA Distribuida\sumo-federado\Test\1_arista_simulation.net.xml"/>
    </output>

    <processing>
        <geometry.min-radius.fix.railways value="false"/>
        <geometry.max-grade.fix value="false"/>
        <offset.disable-normalization value="true"/>
        <lefthand value="0"/>
    </processing>

    <junctions>
        <no-internal-links value="true"/>
        <no-turnarounds value="true"/>
        <junctions.corner-detail value="5"/>
        <junctions.limit-turn-speed value="5.50"/>
        <rectangular-lane-cut value="0"/>
    </junctions>

    <pedestrian>
        <walkingareas value="0"/>
    </pedestrian>

</configuration>
-->

<net version="1.16" junctionCornerDetail="5" limitTurnSpeed="5.50" xmlns:xsi="http://www.w3.org/2001/XMLSchema-instance" xsi:noNamespaceSchemaLocation="http://sumo.dlr.de/xsd/net_file.xsd">

    <location netOffset="0.00,0.00" convBoundary="-12.61,57.73,105.45,123.99" origBoundary="-10000000000.00,-10000000000.00,10000000000.00,10000000000.00" projParameter="!"/>

    <edge id="E0" from="J0" to="clusterJ2_J5" priority="-1" shape="-12.61,57.73 42.96,57.78">
        <lane id="E0_0" index="0" speed="13.89" length="57.08" shape="-12.61,56.13 39.04,56.18"/>
    </edge>
    <edge id="E0.55" from="clusterJ2_J5" to="J1" priority="-1" shape="42.96,57.78 105.45,57.84">
        <lane id="E0.55_0" index="0" speed="13.89" length="63.36" shape="50.23,56.19 105.45,56.24"/>
    </edge>
    <edge id="E1" from="clusterJ2_J5" to="J6" priority="-1" shape="43.03,65.21 43.03,123.99">
        <lane id="E1_0" index="0" speed="13.89" length="62.49" shape="44.63,65.21 44.63,123.99"/>
    </edge>

    <junction id="J0" type="dead_end" x="-12.61" y="57.73" incLanes="" intLanes="" shape="-12.61,57.73 -12.61,54.53"/>
    <junction id="J1" type="dead_end" x="105.45" y="57.84" incLanes="E0.55_0" intLanes="" shape="105.45,54.64 105.45,57.84"/>
    <junction id="J6" type="dead_end" x="43.03" y="123.99" incLanes="E1_0" intLanes="" shape="46.23,123.99 43.03,123.99"/>
    <junction id="clusterJ2_J5" type="priority" x="42.99" y="61.50" incLanes="E0_0" intLanes="" shape="43.03,65.21 46.23,65.21 46.34,62.94 46.67,61.08 47.23,59.64 48.01,58.61 49.01,57.99 50.23,57.79 50.23,54.59 39.04,54.58 39.03,57.78 41.25,58.60 42.03,59.64 42.59,61.08 42.92,62.94">
        <request index="0" response="00" foes="00"/>
        <request index="1" response="00" foes="00"/>
    </junction>

    <connection from="E0" to="E0.55" fromLane="0" toLane="0" dir="s" state="M"/>
    <connection from="E0" to="E1" fromLane="0" toLane="0" dir="l" state="M"/>

</net>
