<?xml version="1.0" encoding="UTF-8"?>

<!-- generated on 2025-08-15 17:45:53 by Eclipse SUMO sumo Version 1.19.0
-->

<configuration xmlns:xsi="http://www.w3.org/2001/XMLSchema-instance" xsi:noNamespaceSchemaLocation="http://sumo.dlr.de/xsd/sumoConfiguration.xsd">

    <input>
        <net-file value="1_arista_simulation.net.xml"/>
    </input>

</configuration>
