<?xml version="1.0" encoding="UTF-8"?>

<!-- generated on 2025-08-08 10:43:30 by Eclipse SUMO netedit Version 1.19.0
<configuration xmlns:xsi="http://www.w3.org/2001/XMLSchema-instance" xsi:noNamespaceSchemaLocation="http://sumo.dlr.de/xsd/neteditConfiguration.xsd">

    <input>
        <sumocfg-file value="C:\Users\oswal\Desktop\ITLA\sumo-federated\sumo-federated\Test\1_arista_simulation.sumocfg"/>
        <sumo-net-file value="C:\Users\oswal\Desktop\ITLA\sumo-federated\sumo-federated\Test\1_arista_simulation.net.xml"/>
    </input>

    <output>
        <output-file value="C:\Users\oswal\Desktop\ITLA\sumo-federated\sumo-federated\Test\1_arista_simulation.net.xml"/>
    </output>

    <processing>
        <offset.disable-normalization value="true"/>
    </processing>

    <junctions>
        <no-turnarounds value="true"/>
    </junctions>

    <netedit>
        <new-network value="false"/>
    </netedit>

</configuration>
-->

<net version="1.16" junctionCornerDetail="5" limitTurnSpeed="5.50" xmlns:xsi="http://www.w3.org/2001/XMLSchema-instance" xsi:noNamespaceSchemaLocation="http://sumo.dlr.de/xsd/net_file.xsd">

    <location netOffset="0.00,0.00" convBoundary="-12.61,57.73,105.45,57.84" origBoundary="10000000000.00,10000000000.00,-10000000000.00,-10000000000.00" projParameter="!"/>

    <edge id="E0" from="J0" to="J1" priority="-1">
        <lane id="E0_0" index="0" speed="13.89" length="118.07" shape="-12.61,56.13 105.46,56.24"/>
    </edge>

    <junction id="J0" type="dead_end" x="-12.61" y="57.73" incLanes="" intLanes="" shape="-12.61,57.73 -12.61,54.53"/>
    <junction id="J1" type="dead_end" x="105.45" y="57.84" incLanes="E0_0" intLanes="" shape="105.46,54.64 105.45,57.84"/>

</net>
