<?xml version="1.0" encoding="UTF-8"?>

<!-- generated on 2025-08-15 17:17:59 by Eclipse SUMO netedit Version 1.19.0
<configuration xmlns:xsi="http://www.w3.org/2001/XMLSchema-instance" xsi:noNamespaceSchemaLocation="http://sumo.dlr.de/xsd/neteditConfiguration.xsd">

    <input>
        <sumocfg-file value="C:\Users\oswal\Desktop\ITLA\IA Distribuida\sumo-federado\arista 3\3_arista_simulation.sumocfg"/>
        <route-files value="C:\Users\oswal\Desktop\ITLA\IA Distribuida\sumo-federado\arista 3\3_arista_simulacion.rou.xml"/>
        <sumo-net-file value="C:\Users\oswal\Desktop\ITLA\IA Distribuida\sumo-federado\arista 3\3_arista_simulation.net.xml"/>
    </input>

    <output>
        <output-file value="C:\Users\oswal\Desktop\ITLA\IA Distribuida\sumo-federado\arista 3\3_arista_simulation.net.xml"/>
    </output>

    <processing>
        <geometry.min-radius.fix.railways value="false"/>
        <geometry.max-grade.fix value="false"/>
        <offset.disable-normalization value="true"/>
        <lefthand value="0"/>
    </processing>

    <junctions>
        <no-turnarounds value="true"/>
        <junctions.corner-detail value="5"/>
        <junctions.limit-turn-speed value="5.50"/>
        <rectangular-lane-cut value="0"/>
    </junctions>

    <pedestrian>
        <walkingareas value="0"/>
    </pedestrian>

</configuration>
-->

<net version="1.16" junctionCornerDetail="5" limitTurnSpeed="5.50" xmlns:xsi="http://www.w3.org/2001/XMLSchema-instance" xsi:noNamespaceSchemaLocation="http://sumo.dlr.de/xsd/net_file.xsd">

    <location netOffset="0.00,0.00" convBoundary="-230.32,-100.00,0.00,509.12" origBoundary="-10000000000.00,-10000000000.00,10000000000.00,10000000000.00" projParameter="!"/>

    <edge id=":J20_0" function="internal">
        <lane id=":J20_0_0" index="0" speed="13.89" length="10.10" shape="-78.38,429.30 -78.83,432.18 -79.90,434.03 -80.98,435.88 -81.44,438.76"/>
    </edge>
    <edge id=":J20_1" function="internal">
        <lane id=":J20_1_0" index="0" speed="6.07" length="7.78" shape="-81.58,429.36 -81.73,432.12 -82.29,434.10 -83.25,435.29 -84.62,435.69"/>
    </edge>
    <edge id=":J20_2" function="internal">
        <lane id=":J20_2_0" index="0" speed="6.09" length="7.77" shape="-84.64,432.49 -83.27,432.88 -82.28,434.05 -81.67,436.01 -81.44,438.76"/>
    </edge>
    <edge id=":J36_0" function="internal">
        <lane id=":J36_0_0" index="0" speed="13.89" length="11.13" shape="-25.92,439.24 -25.87,428.11"/>
    </edge>
    <edge id=":J36_1" function="internal">
        <lane id=":J36_1_0" index="0" speed="6.51" length="9.00" shape="-31.49,433.67 -29.04,433.32 -27.29,432.28 -26.23,430.54 -25.87,428.11"/>
    </edge>
    <edge id=":J37_0" function="internal">
        <lane id=":J37_0_0" index="0" speed="3.90" length="2.62" shape="-27.55,507.46 -26.84,507.37 -26.33,507.07 -26.02,506.57 -25.92,505.86"/>
    </edge>
    <edge id=":clusterJ21_J23_J24_0" function="internal">
        <lane id=":clusterJ21_J23_J24_0_0" index="0" speed="6.57" length="9.10" shape="-156.91,441.85 -157.31,439.38 -158.39,437.61 -160.15,436.56 -162.59,436.21"/>
    </edge>
    <edge id=":clusterJ21_J23_J24_1" function="internal">
        <lane id=":clusterJ21_J23_J24_1_0" index="0" speed="13.89" length="14.23" shape="-156.91,441.85 -156.58,427.62"/>
    </edge>
    <edge id=":clusterJ21_J23_J24_2" function="internal">
        <lane id=":clusterJ21_J23_J24_2_0" index="0" speed="8.00" length="4.14" shape="-156.91,441.85 -156.41,438.06 -156.25,437.79"/>
    </edge>
    <edge id=":clusterJ21_J23_J24_12" function="internal">
        <lane id=":clusterJ21_J23_J24_12_0" index="0" speed="8.00" length="10.16" shape="-156.25,437.79 -154.76,435.34 -151.93,433.69 -147.95,433.11"/>
    </edge>
    <edge id=":clusterJ21_J23_J24_3" function="internal">
        <lane id=":clusterJ21_J23_J24_3_0" index="0" speed="6.55" length="9.26" shape="-147.92,436.12 -150.50,436.49 -152.32,437.56 -153.39,439.32 -153.71,441.78"/>
    </edge>
    <edge id=":clusterJ21_J23_J24_4" function="internal">
        <lane id=":clusterJ21_J23_J24_4_0" index="0" speed="13.89" length="14.67" shape="-147.92,436.12 -162.59,436.21"/>
    </edge>
    <edge id=":clusterJ21_J23_J24_5" function="internal">
        <lane id=":clusterJ21_J23_J24_5_0" index="0" speed="7.93" length="3.44" shape="-147.92,436.12 -151.33,435.66"/>
    </edge>
    <edge id=":clusterJ21_J23_J24_13" function="internal">
        <lane id=":clusterJ21_J23_J24_13_0" index="0" speed="7.93" length="10.37" shape="-151.33,435.66 -151.66,435.62 -154.35,434.03 -155.99,431.37 -156.58,427.62"/>
    </edge>
    <edge id=":clusterJ21_J23_J24_6" function="internal">
        <lane id=":clusterJ21_J23_J24_6_0" index="0" speed="6.51" length="9.02" shape="-153.61,427.58 -153.23,430.02 -152.17,431.75 -150.40,432.78 -147.95,433.11"/>
    </edge>
    <edge id=":clusterJ21_J23_J24_7" function="internal">
        <lane id=":clusterJ21_J23_J24_7_0" index="0" speed="13.89" length="14.21" shape="-153.61,427.58 -153.71,441.78"/>
    </edge>
    <edge id=":clusterJ21_J23_J24_8" function="internal">
        <lane id=":clusterJ21_J23_J24_8_0" index="0" speed="7.99" length="3.81" shape="-153.61,427.58 -154.14,431.34"/>
    </edge>
    <edge id=":clusterJ21_J23_J24_14" function="internal">
        <lane id=":clusterJ21_J23_J24_14_0" index="0" speed="7.99" length="10.43" shape="-154.14,431.34 -155.81,434.04 -158.63,435.66 -162.59,436.21"/>
    </edge>
    <edge id=":clusterJ21_J23_J24_9" function="internal">
        <lane id=":clusterJ21_J23_J24_9_0" index="0" speed="6.62" length="9.53" shape="-162.60,433.37 -159.93,433.02 -158.04,431.94 -156.92,430.15 -156.58,427.62"/>
    </edge>
    <edge id=":clusterJ21_J23_J24_10" function="internal">
        <lane id=":clusterJ21_J23_J24_10_0" index="0" speed="13.89" length="14.65" shape="-162.60,433.37 -147.95,433.11"/>
    </edge>
    <edge id=":clusterJ21_J23_J24_11" function="internal">
        <lane id=":clusterJ21_J23_J24_11_0" index="0" speed="7.99" length="2.40" shape="-162.60,433.37 -160.22,433.70"/>
    </edge>
    <edge id=":clusterJ21_J23_J24_15" function="internal">
        <lane id=":clusterJ21_J23_J24_15_0" index="0" speed="7.99" length="11.48" shape="-160.22,433.70 -158.77,433.91 -156.01,435.49 -154.33,438.11 -153.71,441.78"/>
    </edge>
    <edge id=":clusterJ26_J29_J30_0" function="internal">
        <lane id=":clusterJ26_J29_J30_0_0" index="0" speed="13.89" length="14.35" shape="-146.91,509.22 -161.26,509.09"/>
    </edge>
    <edge id=":clusterJ26_J29_J30_1" function="internal">
        <lane id=":clusterJ26_J29_J30_1_0" index="0" speed="8.07" length="3.85" shape="-146.91,509.22 -150.71,508.63"/>
    </edge>
    <edge id=":clusterJ26_J29_J30_6" function="internal">
        <lane id=":clusterJ26_J29_J30_6_0" index="0" speed="8.07" length="10.28" shape="-150.71,508.63 -153.45,506.97 -155.13,504.24 -155.75,500.42"/>
    </edge>
    <edge id=":clusterJ26_J29_J30_2" function="internal">
        <lane id=":clusterJ26_J29_J30_2_0" index="0" speed="6.61" length="9.16" shape="-152.55,500.36 -152.15,502.86 -151.07,504.65 -149.32,505.74 -146.88,506.12"/>
    </edge>
    <edge id=":clusterJ26_J29_J30_3" function="internal">
        <lane id=":clusterJ26_J29_J30_3_0" index="0" speed="7.94" length="14.12" shape="-152.55,500.36 -153.03,504.17 -154.64,506.90 -157.38,508.54 -161.26,509.09"/>
    </edge>
    <edge id=":clusterJ26_J29_J30_4" function="internal">
        <lane id=":clusterJ26_J29_J30_4_0" index="0" speed="6.46" length="9.03" shape="-161.26,506.05 -158.81,505.70 -157.07,504.64 -156.05,502.88 -155.75,500.42"/>
    </edge>
    <edge id=":clusterJ26_J29_J30_5" function="internal">
        <lane id=":clusterJ26_J29_J30_5_0" index="0" speed="13.89" length="14.38" shape="-161.26,506.05 -146.88,506.12"/>
    </edge>
    <edge id=":clusterJ28_J34_0" function="internal">
        <lane id=":clusterJ28_J34_0_0" index="0" speed="6.51" length="8.83" shape="-77.44,501.11 -77.07,503.49 -76.03,505.20 -74.32,506.25 -71.94,506.64"/>
    </edge>
    <edge id=":clusterJ28_J34_1" function="internal">
        <lane id=":clusterJ28_J34_1_0" index="0" speed="7.23" length="11.60" shape="-80.64,501.15 -80.94,504.98 -81.95,507.70 -83.67,509.32 -86.11,509.84"/>
    </edge>
    <edge id=":clusterJ28_J34_2" function="internal">
        <lane id=":clusterJ28_J34_2_0" index="0" speed="13.89" length="14.14" shape="-86.08,506.65 -71.94,506.64"/>
    </edge>

    <edge id="-E16" from="J20" to="clusterJ21_J23_J24" priority="-1" shape="-83.10,434.08 -158.90,434.60">
        <lane id="-E16_0" index="0" speed="13.89" length="63.31" shape="-84.62,435.69 -147.92,436.12"/>
    </edge>
    <edge id="-E16.85" from="clusterJ21_J23_J24" to="J19" priority="-1" shape="-158.90,434.60 -227.05,434.76">
        <lane id="-E16.85_0" index="0" speed="13.89" length="64.45" shape="-162.59,436.21 -227.05,436.36"/>
    </edge>
    <edge id="-E17" from="J22" to="clusterJ21_J23_J24" priority="-1" shape="-155.71,383.45 -155.21,427.79">
        <lane id="-E17_0" index="0" speed="13.89" length="44.15" shape="-154.11,383.43 -153.61,427.58"/>
    </edge>
    <edge id="-E19" from="clusterJ26_J29_J30" to="clusterJ21_J23_J24" priority="-1" shape="-154.10,502.74 -155.50,432.18">
        <lane id="-E19_0" index="0" speed="13.89" length="58.58" shape="-155.75,500.42 -156.91,441.85"/>
    </edge>
    <edge id="-E20" from="clusterJ28_J34" to="clusterJ26_J29_J30" priority="-1" shape="-78.61,508.32 -159.37,507.49">
        <lane id="-E20_0" index="0" speed="13.89" length="60.80" shape="-86.11,509.84 -146.91,509.22"/>
    </edge>
    <edge id="-E20.83" from="clusterJ26_J29_J30" to="J27" priority="-1" shape="-159.37,507.49 -230.32,507.66">
        <lane id="-E20.83_0" index="0" speed="13.89" length="69.06" shape="-161.26,509.09 -230.32,509.26"/>
    </edge>
    <edge id="E16" from="J19" to="clusterJ21_J23_J24" priority="-1" shape="-227.05,434.76 -153.62,435.00">
        <lane id="E16_0" index="0" speed="13.89" length="64.45" shape="-227.04,433.16 -162.60,433.37"/>
    </edge>
    <edge id="E16.72" from="clusterJ21_J23_J24" to="J20" priority="-1" shape="-154.09,434.77 -83.10,434.08">
        <lane id="E16.72_0" index="0" speed="13.89" length="63.32" shape="-147.95,433.11 -84.64,432.49"/>
    </edge>
    <edge id="E17" from="clusterJ21_J23_J24" to="J22" priority="-1" shape="-154.98,427.79 -155.71,383.45">
        <lane id="E17_0" index="0" speed="13.89" length="44.15" shape="-156.58,427.62 -157.31,383.48"/>
    </edge>
    <edge id="E19" from="clusterJ21_J23_J24" to="clusterJ26_J29_J30" priority="-1" shape="-155.50,432.18 -154.10,502.74">
        <lane id="E19_0" index="0" speed="13.89" length="58.58" shape="-153.71,441.78 -152.55,500.36"/>
    </edge>
    <edge id="E20" from="J27" to="clusterJ26_J29_J30" priority="-1" shape="-230.32,507.66 -154.38,507.65">
        <lane id="E20_0" index="0" speed="13.89" length="69.06" shape="-230.32,506.06 -161.26,506.05"/>
    </edge>
    <edge id="E20.82" from="clusterJ26_J29_J30" to="clusterJ28_J34" priority="-1" shape="-154.38,507.65 -78.61,508.32">
        <lane id="E20.82_0" index="0" speed="13.89" length="60.80" shape="-146.88,506.12 -86.08,506.65"/>
    </edge>
    <edge id="E22" from="J33" to="J20" priority="-1">
        <lane id="E22_0" index="0" speed="13.89" length="40.52" shape="-79.02,388.79 -78.38,429.30"/>
        <lane id="E22_1" index="1" speed="13.89" length="40.52" shape="-82.22,388.84 -81.58,429.36"/>
    </edge>
    <edge id="E23" from="J20" to="clusterJ28_J34" priority="-1" shape="-83.10,434.08 -82.15,507.84">
        <lane id="E23_0" index="0" speed="13.89" length="62.40" shape="-78.24,438.72 -77.44,501.11"/>
        <lane id="E23_1" index="1" speed="13.89" length="62.40" shape="-81.44,438.76 -80.64,501.15"/>
    </edge>
    <edge id="E24" from="J35" to="J36" priority="-1">
        <lane id="E24_0" index="0" speed="13.89" length="43.81" shape="-75.30,433.67 -31.49,433.67"/>
    </edge>
    <edge id="E25" from="clusterJ28_J34" to="J37" priority="-1">
        <lane id="E25_0" index="0" speed="13.89" length="44.40" shape="-71.94,506.64 -27.55,507.46"/>
    </edge>
    <edge id="E26" from="J37" to="J36" priority="-1">
        <lane id="E26_0" index="0" speed="13.89" length="66.62" shape="-25.92,505.86 -25.92,439.24"/>
    </edge>
    <edge id="E27" from="J36" to="J38" priority="-1">
        <lane id="E27_0" index="0" speed="13.89" length="33.34" shape="-25.87,428.11 -25.61,394.78"/>
    </edge>

    <tlLogic id="J20" type="static" programID="0" offset="0">
        <phase duration="42" state="GGr"/>
        <phase duration="3"  state="yyr"/>
        <phase duration="42" state="rrG"/>
        <phase duration="3"  state="rry"/>
    </tlLogic>
    <tlLogic id="clusterJ21_J23_J24" type="static" programID="0" offset="0">
        <phase duration="42" state="GGgrrrGGgrrr"/>
        <phase duration="3"  state="yyyrrryyyrrr"/>
        <phase duration="42" state="rrrGGgrrrGGg"/>
        <phase duration="3"  state="rrryyyrrryyy"/>
    </tlLogic>
    <tlLogic id="clusterJ26_J29_J30" type="static" programID="0" offset="0">
        <phase duration="42" state="GgrrGG"/>
        <phase duration="3"  state="yyrrGy"/>
        <phase duration="42" state="rrGGGr"/>
        <phase duration="3"  state="rryyGr"/>
    </tlLogic>
    <tlLogic id="clusterJ28_J34" type="static" programID="0" offset="0">
        <phase duration="42" state="GGr"/>
        <phase duration="3"  state="yyr"/>
        <phase duration="42" state="rrG"/>
        <phase duration="3"  state="rry"/>
    </tlLogic>

    <junction id="J19" type="dead_end" x="-227.05" y="434.76" incLanes="-E16.85_0" intLanes="" shape="-227.05,434.76 -227.04,431.56 -227.04,437.96"/>
    <junction id="J2" type="dead_end" x="0.00" y="-100.00" incLanes="" intLanes="" shape="0.00,-100.00"/>
    <junction id="J20" type="traffic_light" x="-83.10" y="434.08" incLanes="E22_0 E22_1 E16.72_0" intLanes=":J20_0_0 :J20_1_0 :J20_2_0" shape="-83.04,438.78 -76.64,438.70 -76.78,429.28 -83.17,429.38 -83.33,430.22 -83.53,430.51 -83.82,430.72 -84.19,430.85 -84.65,430.89 -84.61,437.29 -83.74,437.45 -83.44,437.66 -83.22,437.95 -83.09,438.32">
        <request index="0" response="000" foes="100" cont="0"/>
        <request index="1" response="000" foes="100" cont="0"/>
        <request index="2" response="011" foes="011" cont="0"/>
    </junction>
    <junction id="J22" type="dead_end" x="-155.71" y="383.45" incLanes="E17_0" intLanes="" shape="-155.71,383.45 -152.51,383.41 -158.91,383.50"/>
    <junction id="J27" type="dead_end" x="-230.32" y="507.66" incLanes="-E20.83_0" intLanes="" shape="-230.32,507.66 -230.32,504.46 -230.31,510.86"/>
    <junction id="J33" type="dead_end" x="-83.82" y="388.87" incLanes="" intLanes="" shape="-83.82,388.87 -77.42,388.77"/>
    <junction id="J35" type="dead_end" x="-75.30" y="435.27" incLanes="" intLanes="" shape="-75.30,435.27 -75.30,432.07"/>
    <junction id="J36" type="priority" x="-24.32" y="435.27" incLanes="E26_0 E24_0" intLanes=":J36_0_0 :J36_1_0" shape="-27.52,439.24 -24.32,439.24 -24.27,428.13 -27.47,428.10 -27.93,430.31 -28.49,431.08 -29.27,431.63 -30.27,431.96 -31.49,432.07 -31.49,435.27 -29.28,435.71 -28.51,436.26 -27.96,437.03 -27.63,438.03">
        <request index="0" response="10" foes="10" cont="0"/>
        <request index="1" response="00" foes="01" cont="0"/>
    </junction>
    <junction id="J37" type="priority" x="-24.32" y="509.12" incLanes="E25_0" intLanes=":J37_0_0" shape="-24.32,505.86 -27.52,505.86 -27.58,509.06 -25.77,508.73 -25.13,508.29 -24.68,507.66 -24.41,506.85">
        <request index="0" response="0" foes="0" cont="0"/>
    </junction>
    <junction id="J38" type="dead_end" x="-24.01" y="394.79" incLanes="E27_0" intLanes="" shape="-27.21,394.77 -24.01,394.79"/>
    <junction id="clusterJ21_J23_J24" type="traffic_light" x="-155.50" y="432.18" incLanes="-E19_0 -E16_0 -E17_0 E16_0" intLanes=":clusterJ21_J23_J24_0_0 :clusterJ21_J23_J24_1_0 :clusterJ21_J23_J24_12_0 :clusterJ21_J23_J24_3_0 :clusterJ21_J23_J24_4_0 :clusterJ21_J23_J24_13_0 :clusterJ21_J23_J24_6_0 :clusterJ21_J23_J24_7_0 :clusterJ21_J23_J24_14_0 :clusterJ21_J23_J24_9_0 :clusterJ21_J23_J24_10_0 :clusterJ21_J23_J24_15_0" shape="-158.51,441.88 -152.11,441.75 -151.68,439.53 -151.10,438.75 -150.28,438.19 -149.21,437.84 -147.91,437.72 -147.97,431.51 -150.19,431.09 -150.98,430.54 -151.54,429.77 -151.89,428.77 -152.01,427.55 -158.18,427.65 -158.64,429.95 -159.25,430.75 -160.12,431.32 -161.23,431.66 -162.60,431.77 -162.59,437.81 -160.36,438.26 -159.57,438.82 -159.00,439.61 -158.64,440.63">
        <request index="0"  response="000000000000" foes="000100010000" cont="0"/>
        <request index="1"  response="100000100000" foes="111100110000" cont="0"/>
        <request index="2"  response="100011100000" foes="110111110000" cont="1"/>
        <request index="3"  response="000010000000" foes="100010000000" cont="0"/>
        <request index="4"  response="000110000111" foes="100110000111" cont="0"/>
        <request index="5"  response="111110000110" foes="111110000110" cont="1"/>
        <request index="6"  response="000000000000" foes="010000000100" cont="0"/>
        <request index="7"  response="100000100000" foes="110000111100" cont="0"/>
        <request index="8"  response="100000100111" foes="110000110111" cont="1"/>
        <request index="9"  response="000000000010" foes="000000100010" cont="0"/>
        <request index="10" response="000111000110" foes="000111100110" cont="0"/>
        <request index="11" response="000110011110" foes="000110111110" cont="1"/>
    </junction>
    <junction id="clusterJ26_J29_J30" type="traffic_light" x="-155.95" y="505.96" incLanes="-E20_0 E19_0 E20_0" intLanes=":clusterJ26_J29_J30_0_0 :clusterJ26_J29_J30_6_0 :clusterJ26_J29_J30_2_0 :clusterJ26_J29_J30_3_0 :clusterJ26_J29_J30_4_0 :clusterJ26_J29_J30_5_0" shape="-146.92,510.82 -146.86,504.52 -149.10,504.03 -149.89,503.45 -150.46,502.64 -150.81,501.60 -150.95,500.32 -157.35,500.45 -157.75,502.67 -158.29,503.45 -159.05,504.01 -160.05,504.34 -161.27,504.45 -161.25,510.69">
        <request index="0" response="000000" foes="001000" cont="0"/>
        <request index="1" response="110000" foes="111000" cont="1"/>
        <request index="2" response="100000" foes="100000" cont="0"/>
        <request index="3" response="100011" foes="100011" cont="0"/>
        <request index="4" response="000000" foes="000010" cont="0"/>
        <request index="5" response="000000" foes="001110" cont="0"/>
    </junction>
    <junction id="clusterJ28_J34" type="traffic_light" x="-80.38" y="508.08" incLanes="E23_0 E23_1 E20.82_0" intLanes=":clusterJ28_J34_0_0 :clusterJ28_J34_1_0 :clusterJ28_J34_2_0" shape="-71.97,508.24 -71.91,505.04 -74.07,504.57 -74.83,504.01 -75.38,503.25 -75.71,502.28 -75.84,501.09 -82.24,501.17 -82.64,503.34 -83.17,504.10 -83.91,504.64 -84.88,504.96 -86.06,505.05 -86.13,511.44 -83.06,511.22 -80.84,510.61 -79.05,509.82 -77.25,509.02 -75.03,508.43">
        <request index="0" response="000" foes="100" cont="0"/>
        <request index="1" response="000" foes="100" cont="0"/>
        <request index="2" response="011" foes="011" cont="0"/>
    </junction>

    <junction id=":clusterJ21_J23_J24_12_0" type="internal" x="-156.25" y="437.79" incLanes=":clusterJ21_J23_J24_2_0 -E17_0" intLanes=":clusterJ21_J23_J24_4_0 :clusterJ21_J23_J24_5_0 :clusterJ21_J23_J24_6_0 :clusterJ21_J23_J24_7_0 :clusterJ21_J23_J24_10_0 :clusterJ21_J23_J24_11_0"/>
    <junction id=":clusterJ21_J23_J24_13_0" type="internal" x="-151.33" y="435.66" incLanes=":clusterJ21_J23_J24_5_0 E16_0" intLanes=":clusterJ21_J23_J24_1_0 :clusterJ21_J23_J24_2_0 :clusterJ21_J23_J24_7_0 :clusterJ21_J23_J24_8_0 :clusterJ21_J23_J24_9_0 :clusterJ21_J23_J24_10_0"/>
    <junction id=":clusterJ21_J23_J24_14_0" type="internal" x="-154.14" y="431.34" incLanes=":clusterJ21_J23_J24_8_0 -E19_0" intLanes=":clusterJ21_J23_J24_0_0 :clusterJ21_J23_J24_1_0 :clusterJ21_J23_J24_4_0 :clusterJ21_J23_J24_5_0 :clusterJ21_J23_J24_10_0 :clusterJ21_J23_J24_11_0"/>
    <junction id=":clusterJ21_J23_J24_15_0" type="internal" x="-160.22" y="433.70" incLanes=":clusterJ21_J23_J24_11_0 -E16_0" intLanes=":clusterJ21_J23_J24_1_0 :clusterJ21_J23_J24_2_0 :clusterJ21_J23_J24_3_0 :clusterJ21_J23_J24_4_0 :clusterJ21_J23_J24_7_0 :clusterJ21_J23_J24_8_0"/>
    <junction id=":clusterJ26_J29_J30_6_0" type="internal" x="-150.71" y="508.63" incLanes=":clusterJ26_J29_J30_1_0 E20_0" intLanes=":clusterJ26_J29_J30_3_0 :clusterJ26_J29_J30_4_0 :clusterJ26_J29_J30_5_0"/>

    <connection from="-E16" to="E19" fromLane="0" toLane="0" via=":clusterJ21_J23_J24_3_0" tl="clusterJ21_J23_J24" linkIndex="3" dir="r" state="o"/>
    <connection from="-E16" to="-E16.85" fromLane="0" toLane="0" via=":clusterJ21_J23_J24_4_0" tl="clusterJ21_J23_J24" linkIndex="4" dir="s" state="o"/>
    <connection from="-E16" to="E17" fromLane="0" toLane="0" via=":clusterJ21_J23_J24_5_0" tl="clusterJ21_J23_J24" linkIndex="5" dir="l" state="o"/>
    <connection from="-E17" to="E16.72" fromLane="0" toLane="0" via=":clusterJ21_J23_J24_6_0" tl="clusterJ21_J23_J24" linkIndex="6" dir="r" state="O"/>
    <connection from="-E17" to="E19" fromLane="0" toLane="0" via=":clusterJ21_J23_J24_7_0" tl="clusterJ21_J23_J24" linkIndex="7" dir="s" state="O"/>
    <connection from="-E17" to="-E16.85" fromLane="0" toLane="0" via=":clusterJ21_J23_J24_8_0" tl="clusterJ21_J23_J24" linkIndex="8" dir="l" state="o"/>
    <connection from="-E19" to="-E16.85" fromLane="0" toLane="0" via=":clusterJ21_J23_J24_0_0" tl="clusterJ21_J23_J24" linkIndex="0" dir="r" state="O"/>
    <connection from="-E19" to="E17" fromLane="0" toLane="0" via=":clusterJ21_J23_J24_1_0" tl="clusterJ21_J23_J24" linkIndex="1" dir="s" state="O"/>
    <connection from="-E19" to="E16.72" fromLane="0" toLane="0" via=":clusterJ21_J23_J24_2_0" tl="clusterJ21_J23_J24" linkIndex="2" dir="l" state="o"/>
    <connection from="-E20" to="-E20.83" fromLane="0" toLane="0" via=":clusterJ26_J29_J30_0_0" tl="clusterJ26_J29_J30" linkIndex="0" dir="s" state="O"/>
    <connection from="-E20" to="-E19" fromLane="0" toLane="0" via=":clusterJ26_J29_J30_1_0" tl="clusterJ26_J29_J30" linkIndex="1" dir="l" state="o"/>
    <connection from="E16" to="E17" fromLane="0" toLane="0" via=":clusterJ21_J23_J24_9_0" tl="clusterJ21_J23_J24" linkIndex="9" dir="r" state="o"/>
    <connection from="E16" to="E16.72" fromLane="0" toLane="0" via=":clusterJ21_J23_J24_10_0" tl="clusterJ21_J23_J24" linkIndex="10" dir="s" state="o"/>
    <connection from="E16" to="E19" fromLane="0" toLane="0" via=":clusterJ21_J23_J24_11_0" tl="clusterJ21_J23_J24" linkIndex="11" dir="l" state="o"/>
    <connection from="E16.72" to="E23" fromLane="0" toLane="1" via=":J20_2_0" tl="J20" linkIndex="2" dir="l" state="o"/>
    <connection from="E19" to="E20.82" fromLane="0" toLane="0" via=":clusterJ26_J29_J30_2_0" tl="clusterJ26_J29_J30" linkIndex="2" dir="r" state="o"/>
    <connection from="E19" to="-E20.83" fromLane="0" toLane="0" via=":clusterJ26_J29_J30_3_0" tl="clusterJ26_J29_J30" linkIndex="3" dir="l" state="o"/>
    <connection from="E20" to="-E19" fromLane="0" toLane="0" via=":clusterJ26_J29_J30_4_0" tl="clusterJ26_J29_J30" linkIndex="4" dir="r" state="O"/>
    <connection from="E20" to="E20.82" fromLane="0" toLane="0" via=":clusterJ26_J29_J30_5_0" tl="clusterJ26_J29_J30" linkIndex="5" dir="s" state="O"/>
    <connection from="E20.82" to="E25" fromLane="0" toLane="0" via=":clusterJ28_J34_2_0" tl="clusterJ28_J34" linkIndex="2" dir="s" state="o"/>
    <connection from="E22" to="E23" fromLane="0" toLane="1" via=":J20_0_0" tl="J20" linkIndex="0" dir="s" state="O"/>
    <connection from="E22" to="-E16" fromLane="1" toLane="0" via=":J20_1_0" tl="J20" linkIndex="1" dir="l" state="O"/>
    <connection from="E23" to="E25" fromLane="0" toLane="0" via=":clusterJ28_J34_0_0" tl="clusterJ28_J34" linkIndex="0" dir="r" state="O"/>
    <connection from="E23" to="-E20" fromLane="1" toLane="0" via=":clusterJ28_J34_1_0" tl="clusterJ28_J34" linkIndex="1" dir="l" state="O"/>
    <connection from="E24" to="E27" fromLane="0" toLane="0" via=":J36_1_0" dir="r" state="M"/>
    <connection from="E25" to="E26" fromLane="0" toLane="0" via=":J37_0_0" dir="r" state="M"/>
    <connection from="E26" to="E27" fromLane="0" toLane="0" via=":J36_0_0" dir="s" state="m"/>

    <connection from=":J20_0" to="E23" fromLane="0" toLane="1" dir="s" state="M"/>
    <connection from=":J20_1" to="-E16" fromLane="0" toLane="0" dir="l" state="M"/>
    <connection from=":J20_2" to="E23" fromLane="0" toLane="1" dir="l" state="M"/>
    <connection from=":J36_0" to="E27" fromLane="0" toLane="0" dir="s" state="M"/>
    <connection from=":J36_1" to="E27" fromLane="0" toLane="0" dir="r" state="M"/>
    <connection from=":J37_0" to="E26" fromLane="0" toLane="0" dir="r" state="M"/>
    <connection from=":clusterJ21_J23_J24_0" to="-E16.85" fromLane="0" toLane="0" dir="r" state="M"/>
    <connection from=":clusterJ21_J23_J24_1" to="E17" fromLane="0" toLane="0" dir="s" state="M"/>
    <connection from=":clusterJ21_J23_J24_2" to="E16.72" fromLane="0" toLane="0" via=":clusterJ21_J23_J24_12_0" dir="l" state="m"/>
    <connection from=":clusterJ21_J23_J24_12" to="E16.72" fromLane="0" toLane="0" dir="l" state="M"/>
    <connection from=":clusterJ21_J23_J24_3" to="E19" fromLane="0" toLane="0" dir="r" state="M"/>
    <connection from=":clusterJ21_J23_J24_4" to="-E16.85" fromLane="0" toLane="0" dir="s" state="M"/>
    <connection from=":clusterJ21_J23_J24_5" to="E17" fromLane="0" toLane="0" via=":clusterJ21_J23_J24_13_0" dir="l" state="m"/>
    <connection from=":clusterJ21_J23_J24_13" to="E17" fromLane="0" toLane="0" dir="l" state="M"/>
    <connection from=":clusterJ21_J23_J24_6" to="E16.72" fromLane="0" toLane="0" dir="r" state="M"/>
    <connection from=":clusterJ21_J23_J24_7" to="E19" fromLane="0" toLane="0" dir="s" state="M"/>
    <connection from=":clusterJ21_J23_J24_8" to="-E16.85" fromLane="0" toLane="0" via=":clusterJ21_J23_J24_14_0" dir="l" state="m"/>
    <connection from=":clusterJ21_J23_J24_14" to="-E16.85" fromLane="0" toLane="0" dir="l" state="M"/>
    <connection from=":clusterJ21_J23_J24_9" to="E17" fromLane="0" toLane="0" dir="r" state="M"/>
    <connection from=":clusterJ21_J23_J24_10" to="E16.72" fromLane="0" toLane="0" dir="s" state="M"/>
    <connection from=":clusterJ21_J23_J24_11" to="E19" fromLane="0" toLane="0" via=":clusterJ21_J23_J24_15_0" dir="l" state="m"/>
    <connection from=":clusterJ21_J23_J24_15" to="E19" fromLane="0" toLane="0" dir="l" state="M"/>
    <connection from=":clusterJ26_J29_J30_0" to="-E20.83" fromLane="0" toLane="0" dir="s" state="M"/>
    <connection from=":clusterJ26_J29_J30_1" to="-E19" fromLane="0" toLane="0" via=":clusterJ26_J29_J30_6_0" dir="l" state="m"/>
    <connection from=":clusterJ26_J29_J30_6" to="-E19" fromLane="0" toLane="0" dir="l" state="M"/>
    <connection from=":clusterJ26_J29_J30_2" to="E20.82" fromLane="0" toLane="0" dir="r" state="M"/>
    <connection from=":clusterJ26_J29_J30_3" to="-E20.83" fromLane="0" toLane="0" dir="l" state="M"/>
    <connection from=":clusterJ26_J29_J30_4" to="-E19" fromLane="0" toLane="0" dir="r" state="M"/>
    <connection from=":clusterJ26_J29_J30_5" to="E20.82" fromLane="0" toLane="0" dir="s" state="M"/>
    <connection from=":clusterJ28_J34_0" to="E25" fromLane="0" toLane="0" dir="r" state="M"/>
    <connection from=":clusterJ28_J34_1" to="-E20" fromLane="0" toLane="0" dir="l" state="M"/>
    <connection from=":clusterJ28_J34_2" to="E25" fromLane="0" toLane="0" dir="s" state="M"/>

</net>
