<?xml version="1.0" encoding="UTF-8"?>

<!-- generated on 2025-08-15 17:17:56 by Eclipse SUMO netedit Version 1.19.0
-->

<routes xmlns:xsi="http://www.w3.org/2001/XMLSchema-instance" xsi:noNamespaceSchemaLocation="http://sumo.dlr.de/xsd/routes_file.xsd">
    <!-- Vehicles, persons and containers (sorted by depart) -->
    <flow id="veh1" begin="0.00" from="E20" to="E27" via="E20.82 E25 E26" end="3600.00" vehsPerHour="1800"/>
    <flow id="veh2" begin="0.00" color="128,0,0" from="E22" to="-E16.85" via="-E16" end="3600.00" vehsPerHour="1800"/>
    <flow id="veh3" begin="0.00" color="cyan" from="-E17" to="-E20.83" via="E19" end="3600.00" vehsPerHour="1800"/>
    <flow id="veh6" begin="0.00" color="white" from="E16" to="E27" via="E19 E20.82 E25 E26" end="3600.00" vehsPerHour="1800"/>
</routes>
