<?xml version="1.0" encoding="UTF-8"?>

<!-- generated on 2025-08-15 16:27:11 by Eclipse SUMO sumo Version 1.24.0
-->

<sumoConfiguration xmlns:xsi="http://www.w3.org/2001/XMLSchema-instance" xsi:noNamespaceSchemaLocation="http://sumo.dlr.de/xsd/sumoConfiguration.xsd">

    <input>
        <net-file value="../../../../../Public/sumo/sum.net.xml"/>
    </input>

</sumoConfiguration>
