<?xml version="1.0" encoding="UTF-8"?>

<!-- generated on 2025-08-14 22:47:20 by Eclipse SUMO netedit Version 1.24.0
-->

<routes xmlns:xsi="http://www.w3.org/2001/XMLSchema-instance" xsi:noNamespaceSchemaLocation="http://sumo.dlr.de/xsd/routes_file.xsd">
    <!-- Routes -->
    <route id="veh1" edges="-E15 -E13 -E3 E2 -E21 E19"/>
    <!-- Vehicles, persons and containers (sorted by depart) -->
    <flow id="f_0" begin="0.00" color="magenta" from="-E15" to="E19" via="-E13 -E3 E2 -E21" end="3600.00" vehsPerHour="1800"/>
    <flow id="f_1" begin="0.00" color="magenta" from="-E20" to="-E16" via="-E18 -E17 E5 E14" end="3600.00" vehsPerHour="1800"/>
    <flow id="f_2" begin="0.00" color="magenta" from="-E20" to="E15" via="E21 -E2 E5 E14" end="3600.00" vehsPerHour="1800"/>
    <flow id="veh2" begin="0.00" color="magenta" from="E16" to="E20" via="-E14 -E5 E17 E18" end="3600.00" vehsPerHour="1800"/>
</routes>
