<?xml version="1.0" encoding="UTF-8"?>

<!-- generated on 2025-08-15 05:32:15 by Eclipse SUMO netedit Version 1.24.0
<neteditConfiguration xmlns:xsi="http://www.w3.org/2001/XMLSchema-instance" xsi:noNamespaceSchemaLocation="http://sumo.dlr.de/xsd/neteditConfiguration.xsd">

    <input>
        <sumocfg-file value="C:\Users\melio\OneDrive\Escritorio\Proyectos\semaforos-geneticos\sumo-federado\arista 3\3_arista_simulation.sumocfg"/>
        <route-files value="C:\Users\melio\OneDrive\Escritorio\Proyectos\semaforos-geneticos\sumo-federado\arista 3\3_arista_simulation.rou.xml"/>
        <sumo-net-file value="C:\Users\melio\OneDrive\Escritorio\Proyectos\semaforos-geneticos\sumo-federado\arista 3\3_arista_simulation.net.xml"/>
    </input>

    <output>
        <output-file value="C:\Users\melio\OneDrive\Escritorio\Proyectos\semaforos-geneticos\sumo-federado\arista 3\3_arista_simulation.net.xml"/>
    </output>

    <processing>
        <offset.disable-normalization value="true"/>
    </processing>

    <junctions>
        <no-turnarounds value="true"/>
    </junctions>

    <netedit>
        <new-network value="false"/>
    </netedit>

</neteditConfiguration>
-->

<net version="1.20" junctionCornerDetail="5" limitTurnSpeed="5.50" xmlns:xsi="http://www.w3.org/2001/XMLSchema-instance" xsi:noNamespaceSchemaLocation="http://sumo.dlr.de/xsd/net_file.xsd">

    <location netOffset="0.00,0.00" convBoundary="-100.00,-200.00,300.00,200.00" origBoundary="10000000000.00,10000000000.00,-10000000000.00,-10000000000.00" projParameter="!"/>

    <edge id=":J0_0" function="internal">
        <lane id=":J0_0_0" index="0" speed="8.67" length="16.85" shape="-1.60,10.40 -1.05,5.15 0.60,1.40 3.35,-0.85 7.20,-1.60"/>
    </edge>
    <edge id=":J0_1" function="internal">
        <lane id=":J0_1_0" index="0" speed="7.33" length="11.73" shape="7.20,1.60 4.75,2.15 3.00,3.80 1.95,6.55 1.60,10.40"/>
    </edge>
    <edge id=":J11_0" function="internal">
        <lane id=":J11_0_0" index="0" speed="7.33" length="11.73" shape="198.40,-89.60 198.05,-93.45 197.00,-96.20 195.25,-97.85 192.80,-98.40"/>
    </edge>
    <edge id=":J11_1" function="internal">
        <lane id=":J11_1_0" index="0" speed="13.89" length="20.80" shape="198.40,-89.60 198.40,-110.40"/>
    </edge>
    <edge id=":J11_2" function="internal">
        <lane id=":J11_2_0" index="0" speed="8.67" length="5.56" shape="198.40,-89.60 198.95,-94.85 199.06,-95.11"/>
    </edge>
    <edge id=":J11_12" function="internal">
        <lane id=":J11_12_0" index="0" speed="8.67" length="11.29" shape="199.06,-95.11 200.60,-98.60 203.35,-100.85 207.20,-101.60"/>
    </edge>
    <edge id=":J11_3" function="internal">
        <lane id=":J11_3_0" index="0" speed="7.33" length="11.73" shape="207.20,-98.40 204.75,-97.85 203.00,-96.20 201.95,-93.45 201.60,-89.60"/>
    </edge>
    <edge id=":J11_4" function="internal">
        <lane id=":J11_4_0" index="0" speed="13.89" length="14.40" shape="207.20,-98.40 192.80,-98.40"/>
    </edge>
    <edge id=":J11_5" function="internal">
        <lane id=":J11_5_0" index="0" speed="8.67" length="3.71" shape="207.20,-98.40 203.56,-99.11"/>
    </edge>
    <edge id=":J11_13" function="internal">
        <lane id=":J11_13_0" index="0" speed="8.67" length="13.14" shape="203.56,-99.11 203.35,-99.15 200.60,-101.40 198.95,-105.15 198.40,-110.40"/>
    </edge>
    <edge id=":J11_6" function="internal">
        <lane id=":J11_6_0" index="0" speed="7.33" length="11.73" shape="201.60,-110.40 201.95,-106.55 203.00,-103.80 204.75,-102.15 207.20,-101.60"/>
    </edge>
    <edge id=":J11_7" function="internal">
        <lane id=":J11_7_0" index="0" speed="13.89" length="20.80" shape="201.60,-110.40 201.60,-89.60"/>
    </edge>
    <edge id=":J11_8" function="internal">
        <lane id=":J11_8_0" index="0" speed="8.67" length="5.56" shape="201.60,-110.40 201.05,-105.15 200.94,-104.89"/>
    </edge>
    <edge id=":J11_14" function="internal">
        <lane id=":J11_14_0" index="0" speed="8.67" length="11.29" shape="200.94,-104.89 199.40,-101.40 196.65,-99.15 192.80,-98.40"/>
    </edge>
    <edge id=":J11_9" function="internal">
        <lane id=":J11_9_0" index="0" speed="7.33" length="11.73" shape="192.80,-101.60 195.25,-102.15 197.00,-103.80 198.05,-106.55 198.40,-110.40"/>
    </edge>
    <edge id=":J11_10" function="internal">
        <lane id=":J11_10_0" index="0" speed="13.89" length="14.40" shape="192.80,-101.60 207.20,-101.60"/>
    </edge>
    <edge id=":J11_11" function="internal">
        <lane id=":J11_11_0" index="0" speed="8.67" length="3.71" shape="192.80,-101.60 196.44,-100.89"/>
    </edge>
    <edge id=":J11_15" function="internal">
        <lane id=":J11_15_0" index="0" speed="8.67" length="13.14" shape="196.44,-100.89 196.65,-100.85 199.40,-98.60 201.05,-94.85 201.60,-89.60"/>
    </edge>
    <edge id=":J12_0" function="internal">
        <lane id=":J12_0_0" index="0" speed="8.67" length="16.85" shape="101.60,89.60 101.05,94.85 99.40,98.60 96.65,100.85 92.80,101.60"/>
    </edge>
    <edge id=":J12_1" function="internal">
        <lane id=":J12_1_0" index="0" speed="7.33" length="11.73" shape="92.80,98.40 95.25,97.85 97.00,96.20 98.05,93.45 98.40,89.60"/>
    </edge>
    <edge id=":J13_0" function="internal">
        <lane id=":J13_0_0" index="0" speed="7.33" length="11.73" shape="-1.60,110.40 -1.95,106.55 -3.00,103.80 -4.75,102.15 -7.20,101.60"/>
    </edge>
    <edge id=":J13_1" function="internal">
        <lane id=":J13_1_0" index="0" speed="13.89" length="20.80" shape="-1.60,110.40 -1.60,89.60"/>
    </edge>
    <edge id=":J13_2" function="internal">
        <lane id=":J13_2_0" index="0" speed="8.67" length="5.56" shape="-1.60,110.40 -1.05,105.15 -0.94,104.89"/>
    </edge>
    <edge id=":J13_12" function="internal">
        <lane id=":J13_12_0" index="0" speed="8.67" length="11.29" shape="-0.94,104.89 0.60,101.40 3.35,99.15 7.20,98.40"/>
    </edge>
    <edge id=":J13_3" function="internal">
        <lane id=":J13_3_0" index="0" speed="7.33" length="11.73" shape="7.20,101.60 4.75,102.15 3.00,103.80 1.95,106.55 1.60,110.40"/>
    </edge>
    <edge id=":J13_4" function="internal">
        <lane id=":J13_4_0" index="0" speed="13.89" length="14.40" shape="7.20,101.60 -7.20,101.60"/>
    </edge>
    <edge id=":J13_5" function="internal">
        <lane id=":J13_5_0" index="0" speed="8.67" length="3.71" shape="7.20,101.60 3.56,100.89"/>
    </edge>
    <edge id=":J13_13" function="internal">
        <lane id=":J13_13_0" index="0" speed="8.67" length="13.14" shape="3.56,100.89 3.35,100.85 0.60,98.60 -1.05,94.85 -1.60,89.60"/>
    </edge>
    <edge id=":J13_6" function="internal">
        <lane id=":J13_6_0" index="0" speed="7.33" length="11.73" shape="1.60,89.60 1.95,93.45 3.00,96.20 4.75,97.85 7.20,98.40"/>
    </edge>
    <edge id=":J13_7" function="internal">
        <lane id=":J13_7_0" index="0" speed="13.89" length="20.80" shape="1.60,89.60 1.60,110.40"/>
    </edge>
    <edge id=":J13_8" function="internal">
        <lane id=":J13_8_0" index="0" speed="8.67" length="5.56" shape="1.60,89.60 1.05,94.85 0.94,95.11"/>
    </edge>
    <edge id=":J13_14" function="internal">
        <lane id=":J13_14_0" index="0" speed="8.67" length="11.29" shape="0.94,95.11 -0.60,98.60 -3.35,100.85 -7.20,101.60"/>
    </edge>
    <edge id=":J13_9" function="internal">
        <lane id=":J13_9_0" index="0" speed="7.33" length="11.73" shape="-7.20,98.40 -4.75,97.85 -3.00,96.20 -1.95,93.45 -1.60,89.60"/>
    </edge>
    <edge id=":J13_10" function="internal">
        <lane id=":J13_10_0" index="0" speed="13.89" length="14.40" shape="-7.20,98.40 7.20,98.40"/>
    </edge>
    <edge id=":J13_11" function="internal">
        <lane id=":J13_11_0" index="0" speed="8.67" length="3.71" shape="-7.20,98.40 -3.56,99.11"/>
    </edge>
    <edge id=":J13_15" function="internal">
        <lane id=":J13_15_0" index="0" speed="8.67" length="13.14" shape="-3.56,99.11 -3.35,99.15 -0.60,101.40 1.05,105.15 1.60,110.40"/>
    </edge>
    <edge id=":J3_0" function="internal">
        <lane id=":J3_0_0" index="0" speed="7.33" length="11.73" shape="98.40,10.40 98.05,6.55 97.00,3.80 95.25,2.15 92.80,1.60"/>
    </edge>
    <edge id=":J3_1" function="internal">
        <lane id=":J3_1_0" index="0" speed="13.89" length="20.80" shape="98.40,10.40 98.40,-10.40"/>
    </edge>
    <edge id=":J3_2" function="internal">
        <lane id=":J3_2_0" index="0" speed="8.67" length="5.56" shape="98.40,10.40 98.95,5.15 99.06,4.89"/>
    </edge>
    <edge id=":J3_12" function="internal">
        <lane id=":J3_12_0" index="0" speed="8.67" length="11.29" shape="99.06,4.89 100.60,1.40 103.35,-0.85 107.20,-1.60"/>
    </edge>
    <edge id=":J3_3" function="internal">
        <lane id=":J3_3_0" index="0" speed="7.33" length="11.73" shape="107.20,1.60 104.75,2.15 103.00,3.80 101.95,6.55 101.60,10.40"/>
    </edge>
    <edge id=":J3_4" function="internal">
        <lane id=":J3_4_0" index="0" speed="13.89" length="14.40" shape="107.20,1.60 92.80,1.60"/>
    </edge>
    <edge id=":J3_5" function="internal">
        <lane id=":J3_5_0" index="0" speed="8.67" length="3.71" shape="107.20,1.60 103.56,0.89"/>
    </edge>
    <edge id=":J3_13" function="internal">
        <lane id=":J3_13_0" index="0" speed="8.67" length="13.14" shape="103.56,0.89 103.35,0.85 100.60,-1.40 98.95,-5.15 98.40,-10.40"/>
    </edge>
    <edge id=":J3_6" function="internal">
        <lane id=":J3_6_0" index="0" speed="7.33" length="11.73" shape="101.60,-10.40 101.95,-6.55 103.00,-3.80 104.75,-2.15 107.20,-1.60"/>
    </edge>
    <edge id=":J3_7" function="internal">
        <lane id=":J3_7_0" index="0" speed="13.89" length="20.80" shape="101.60,-10.40 101.60,10.40"/>
    </edge>
    <edge id=":J3_8" function="internal">
        <lane id=":J3_8_0" index="0" speed="8.67" length="5.56" shape="101.60,-10.40 101.05,-5.15 100.94,-4.89"/>
    </edge>
    <edge id=":J3_14" function="internal">
        <lane id=":J3_14_0" index="0" speed="8.67" length="11.29" shape="100.94,-4.89 99.40,-1.40 96.65,0.85 92.80,1.60"/>
    </edge>
    <edge id=":J3_9" function="internal">
        <lane id=":J3_9_0" index="0" speed="7.33" length="11.73" shape="92.80,-1.60 95.25,-2.15 97.00,-3.80 98.05,-6.55 98.40,-10.40"/>
    </edge>
    <edge id=":J3_10" function="internal">
        <lane id=":J3_10_0" index="0" speed="13.89" length="14.40" shape="92.80,-1.60 107.20,-1.60"/>
    </edge>
    <edge id=":J3_11" function="internal">
        <lane id=":J3_11_0" index="0" speed="8.67" length="3.71" shape="92.80,-1.60 96.44,-0.89"/>
    </edge>
    <edge id=":J3_15" function="internal">
        <lane id=":J3_15_0" index="0" speed="8.67" length="13.14" shape="96.44,-0.89 96.65,-0.85 99.40,1.40 101.05,5.15 101.60,10.40"/>
    </edge>
    <edge id=":J4_0" function="internal">
        <lane id=":J4_0_0" index="0" speed="8.67" length="16.85" shape="201.60,-10.40 201.05,-5.15 199.40,-1.40 196.65,0.85 192.80,1.60"/>
    </edge>
    <edge id=":J4_1" function="internal">
        <lane id=":J4_1_0" index="0" speed="7.33" length="11.73" shape="192.80,-1.60 195.25,-2.15 197.00,-3.80 198.05,-6.55 198.40,-10.40"/>
    </edge>
    <edge id=":J6_0" function="internal">
        <lane id=":J6_0_0" index="0" speed="8.67" length="16.85" shape="98.40,-89.60 98.95,-94.85 100.60,-98.60 103.35,-100.85 107.20,-101.60"/>
    </edge>
    <edge id=":J6_1" function="internal">
        <lane id=":J6_1_0" index="0" speed="7.33" length="11.73" shape="107.20,-98.40 104.75,-97.85 103.00,-96.20 101.95,-93.45 101.60,-89.60"/>
    </edge>

    <edge id="-E13" from="J11" to="J4" priority="-1" shape="200.00,-100.00 200.00,-86.60 200.00,0.00">
        <lane id="-E13_0" index="0" speed="13.89" length="79.20" shape="201.60,-89.60 201.60,-86.60 201.60,-10.40"/>
    </edge>
    <edge id="-E14" from="J11" to="J6" priority="-1" shape="200.00,-100.00 113.40,-100.00 100.00,-100.00">
        <lane id="-E14_0" index="0" speed="13.89" length="85.60" shape="192.80,-95.20 113.40,-95.20 107.20,-95.20"/>
        <lane id="-E14_1" index="1" speed="13.89" length="85.60" shape="192.80,-98.40 113.40,-98.40 107.20,-98.40"/>
    </edge>
    <edge id="-E15" from="J7" to="J11" priority="-1" shape="300.00,-100.00 213.40,-100.00 200.00,-100.00">
        <lane id="-E15_0" index="0" speed="13.89" length="92.80" shape="300.00,-95.20 213.40,-95.20 207.20,-95.20"/>
        <lane id="-E15_1" index="1" speed="13.89" length="92.80" shape="300.00,-98.40 213.40,-98.40 207.20,-98.40"/>
    </edge>
    <edge id="-E16" from="J11" to="J8" priority="-1" shape="200.00,-100.00 200.00,-186.60 200.00,-200.00">
        <lane id="-E16_0" index="0" speed="13.89" length="89.60" shape="198.40,-110.40 198.40,-186.60 198.40,-200.00"/>
    </edge>
    <edge id="-E17" from="J12" to="J3" priority="-1" shape="100.00,100.00 100.00,13.40 100.00,0.00">
        <lane id="-E17_0" index="0" speed="13.89" length="79.20" shape="98.40,89.60 98.40,13.40 98.40,10.40"/>
    </edge>
    <edge id="-E18" from="J13" to="J12" priority="-1" shape="0.00,100.00 13.40,100.00 100.00,100.00">
        <lane id="-E18_0" index="0" speed="13.89" length="85.60" shape="7.20,95.20 13.40,95.20 92.80,95.20"/>
        <lane id="-E18_1" index="1" speed="13.89" length="85.60" shape="7.20,98.40 13.40,98.40 92.80,98.40"/>
    </edge>
    <edge id="-E19" from="J9" to="J13" priority="-1" shape="0.00,200.00 0.00,113.40 0.00,100.00">
        <lane id="-E19_0" index="0" speed="13.89" length="89.60" shape="-1.60,200.00 -1.60,113.40 -1.60,110.40"/>
    </edge>
    <edge id="-E2" from="J0" to="J3" priority="-1" shape="0.00,0.00 13.40,0.00 100.00,0.00">
        <lane id="-E2_0" index="0" speed="13.89" length="85.60" shape="7.20,-4.80 13.40,-4.80 92.80,-4.80"/>
        <lane id="-E2_1" index="1" speed="13.89" length="85.60" shape="7.20,-1.60 13.40,-1.60 92.80,-1.60"/>
    </edge>
    <edge id="-E20" from="J10" to="J13" priority="-1" shape="-100.00,100.00 -86.60,100.00 0.00,100.00">
        <lane id="-E20_0" index="0" speed="13.89" length="92.80" shape="-100.00,95.20 -86.60,95.20 -7.20,95.20"/>
        <lane id="-E20_1" index="1" speed="13.89" length="92.80" shape="-100.00,98.40 -86.60,98.40 -7.20,98.40"/>
    </edge>
    <edge id="-E21" from="J0" to="J13" priority="-1" shape="0.00,0.00 0.00,13.40 0.00,100.00">
        <lane id="-E21_0" index="0" speed="13.89" length="79.20" shape="1.60,10.40 1.60,13.40 1.60,89.60"/>
    </edge>
    <edge id="-E3" from="J4" to="J3" priority="-1" shape="200.00,0.00 113.40,0.00 100.00,0.00">
        <lane id="-E3_0" index="0" speed="13.89" length="85.60" shape="192.80,4.80 113.40,4.80 107.20,4.80"/>
        <lane id="-E3_1" index="1" speed="13.89" length="85.60" shape="192.80,1.60 113.40,1.60 107.20,1.60"/>
    </edge>
    <edge id="-E5" from="J6" to="J3" priority="-1" shape="100.00,-100.00 100.00,-86.60 100.00,0.00">
        <lane id="-E5_0" index="0" speed="13.89" length="79.20" shape="101.60,-89.60 101.60,-86.60 101.60,-10.40"/>
    </edge>
    <edge id="E13" from="J4" to="J11" priority="-1" shape="200.00,0.00 200.00,-86.60 200.00,-100.00">
        <lane id="E13_0" index="0" speed="13.89" length="79.20" shape="198.40,-10.40 198.40,-86.60 198.40,-89.60"/>
    </edge>
    <edge id="E14" from="J6" to="J11" priority="-1" shape="100.00,-100.00 113.40,-100.00 200.00,-100.00">
        <lane id="E14_0" index="0" speed="13.89" length="85.60" shape="107.20,-104.80 113.40,-104.80 192.80,-104.80"/>
        <lane id="E14_1" index="1" speed="13.89" length="85.60" shape="107.20,-101.60 113.40,-101.60 192.80,-101.60"/>
    </edge>
    <edge id="E15" from="J11" to="J7" priority="-1" shape="200.00,-100.00 213.40,-100.00 300.00,-100.00">
        <lane id="E15_0" index="0" speed="13.89" length="92.80" shape="207.20,-104.80 213.40,-104.80 300.00,-104.80"/>
        <lane id="E15_1" index="1" speed="13.89" length="92.80" shape="207.20,-101.60 213.40,-101.60 300.00,-101.60"/>
    </edge>
    <edge id="E16" from="J8" to="J11" priority="-1" shape="200.00,-200.00 200.00,-186.60 200.00,-100.00">
        <lane id="E16_0" index="0" speed="13.89" length="89.60" shape="201.60,-200.00 201.60,-186.60 201.60,-110.40"/>
    </edge>
    <edge id="E17" from="J3" to="J12" priority="-1" shape="100.00,0.00 100.00,13.40 100.00,100.00">
        <lane id="E17_0" index="0" speed="13.89" length="79.20" shape="101.60,10.40 101.60,13.40 101.60,89.60"/>
    </edge>
    <edge id="E18" from="J12" to="J13" priority="-1" shape="100.00,100.00 13.40,100.00 0.00,100.00">
        <lane id="E18_0" index="0" speed="13.89" length="85.60" shape="92.80,104.80 13.40,104.80 7.20,104.80"/>
        <lane id="E18_1" index="1" speed="13.89" length="85.60" shape="92.80,101.60 13.40,101.60 7.20,101.60"/>
    </edge>
    <edge id="E19" from="J13" to="J9" priority="-1" shape="0.00,100.00 0.00,113.40 0.00,200.00">
        <lane id="E19_0" index="0" speed="13.89" length="89.60" shape="1.60,110.40 1.60,113.40 1.60,200.00"/>
    </edge>
    <edge id="E2" from="J3" to="J0" priority="-1" shape="100.00,0.00 13.40,0.00 0.00,0.00">
        <lane id="E2_0" index="0" speed="13.89" length="85.60" shape="92.80,4.80 13.40,4.80 7.20,4.80"/>
        <lane id="E2_1" index="1" speed="13.89" length="85.60" shape="92.80,1.60 13.40,1.60 7.20,1.60"/>
    </edge>
    <edge id="E20" from="J13" to="J10" priority="-1" shape="0.00,100.00 -86.60,100.00 -100.00,100.00">
        <lane id="E20_0" index="0" speed="13.89" length="92.80" shape="-7.20,104.80 -86.60,104.80 -100.00,104.80"/>
        <lane id="E20_1" index="1" speed="13.89" length="92.80" shape="-7.20,101.60 -86.60,101.60 -100.00,101.60"/>
    </edge>
    <edge id="E21" from="J13" to="J0" priority="-1" shape="0.00,100.00 0.00,13.40 0.00,0.00">
        <lane id="E21_0" index="0" speed="13.89" length="79.20" shape="-1.60,89.60 -1.60,13.40 -1.60,10.40"/>
    </edge>
    <edge id="E3" from="J3" to="J4" priority="-1" shape="100.00,0.00 113.40,0.00 200.00,0.00">
        <lane id="E3_0" index="0" speed="13.89" length="85.60" shape="107.20,-4.80 113.40,-4.80 192.80,-4.80"/>
        <lane id="E3_1" index="1" speed="13.89" length="85.60" shape="107.20,-1.60 113.40,-1.60 192.80,-1.60"/>
    </edge>
    <edge id="E5" from="J3" to="J6" priority="-1" shape="100.00,0.00 100.00,-86.60 100.00,-100.00">
        <lane id="E5_0" index="0" speed="13.89" length="79.20" shape="98.40,-10.40 98.40,-86.60 98.40,-89.60"/>
    </edge>

    <tlLogic id="J11" type="static" programID="0" offset="0">
        <phase duration="15" state="rrrGGgrrrGGg"/>
        <phase duration="5"  state="rrryyyrrryyy"/>
        <phase duration="15" state="GGgrrrGGgrrr"/>
        <phase duration="5"  state="yyyrrryyyrrr"/>
    </tlLogic>
    <tlLogic id="J13" type="static" programID="0" offset="0">
        <phase duration="15" state="rrrGGgrrrGGg"/>
        <phase duration="5"  state="rrryyyrrryyy"/>
        <phase duration="15" state="GGgrrrGGgrrr"/>
        <phase duration="5"  state="yyyrrryyyrrr"/>
    </tlLogic>
    <tlLogic id="J3" type="static" programID="0" offset="0">
        <phase duration="15" state="rrrGGgrrrGGg"/>
        <phase duration="5"  state="rrryyyrrryyy"/>
        <phase duration="15" state="GGgrrrGGgrrr"/>
        <phase duration="4"  state="yyyrrryyyrrr"/>
    </tlLogic>

    <junction id="J0" type="priority" x="0.00" y="0.00" incLanes="E21_0 E2_0 E2_1" intLanes=":J0_0_0 :J0_1_0" shape="-3.20,10.40 3.20,10.40 3.64,8.18 4.20,7.40 4.98,6.84 5.98,6.51 7.20,6.40 7.20,-6.40 4.02,-5.93 1.42,-4.53 -0.60,-2.20 -2.04,1.07 -2.91,5.27">
        <request index="0" response="00" foes="00" cont="0"/>
        <request index="1" response="00" foes="00" cont="0"/>
    </junction>
    <junction id="J10" type="dead_end" x="-100.00" y="100.00" incLanes="E20_0 E20_1" intLanes="" shape="-100.00,100.00 -100.00,106.40 -100.00,100.00"/>
    <junction id="J11" type="traffic_light" x="200.00" y="-100.00" incLanes="E13_0 -E15_0 -E15_1 E16_0 E14_0 E14_1" intLanes=":J11_0_0 :J11_1_0 :J11_12_0 :J11_3_0 :J11_4_0 :J11_13_0 :J11_6_0 :J11_7_0 :J11_14_0 :J11_9_0 :J11_10_0 :J11_15_0" shape="196.80,-89.60 203.20,-89.60 203.64,-91.82 204.20,-92.60 204.98,-93.16 205.98,-93.49 207.20,-93.60 207.20,-106.40 204.98,-106.84 204.20,-107.40 203.64,-108.18 203.31,-109.18 203.20,-110.40 196.80,-110.40 196.36,-108.18 195.80,-107.40 195.02,-106.84 194.02,-106.51 192.80,-106.40 192.80,-93.60 195.02,-93.16 195.80,-92.60 196.36,-91.82 196.69,-90.82">
        <request index="0"  response="000000010000" foes="000100010000" cont="0"/>
        <request index="1"  response="111000110000" foes="111100110000" cont="0"/>
        <request index="2"  response="110011110000" foes="110011110000" cont="1"/>
        <request index="3"  response="000000000000" foes="100010000000" cont="0"/>
        <request index="4"  response="000100000100" foes="100110000111" cont="0"/>
        <request index="5"  response="011100000100" foes="011110000110" cont="1"/>
        <request index="6"  response="010000000000" foes="010000000100" cont="0"/>
        <request index="7"  response="110000111000" foes="110000111100" cont="0"/>
        <request index="8"  response="110000110011" foes="110000110011" cont="1"/>
        <request index="9"  response="000000000000" foes="000000100010" cont="0"/>
        <request index="10" response="000100000100" foes="000111100110" cont="0"/>
        <request index="11" response="000100011100" foes="000110011110" cont="1"/>
    </junction>
    <junction id="J12" type="priority" x="100.00" y="100.00" incLanes="E17_0 -E18_0 -E18_1" intLanes=":J12_0_0 :J12_1_0" shape="103.20,89.60 96.80,89.60 96.36,91.82 95.80,92.60 95.02,93.16 94.02,93.49 92.80,93.60 92.80,106.40 95.98,105.93 98.58,104.53 100.60,102.20 102.04,98.93 102.91,94.73">
        <request index="0" response="00" foes="00" cont="0"/>
        <request index="1" response="00" foes="00" cont="0"/>
    </junction>
    <junction id="J13" type="traffic_light" x="0.00" y="100.00" incLanes="-E19_0 E18_0 E18_1 -E21_0 -E20_0 -E20_1" intLanes=":J13_0_0 :J13_1_0 :J13_12_0 :J13_3_0 :J13_4_0 :J13_13_0 :J13_6_0 :J13_7_0 :J13_14_0 :J13_9_0 :J13_10_0 :J13_15_0" shape="-3.20,110.40 3.20,110.40 3.64,108.18 4.20,107.40 4.98,106.84 5.98,106.51 7.20,106.40 7.20,93.60 4.98,93.16 4.20,92.60 3.64,91.82 3.31,90.82 3.20,89.60 -3.20,89.60 -3.64,91.82 -4.20,92.60 -4.98,93.16 -5.98,93.49 -7.20,93.60 -7.20,106.40 -4.98,106.84 -4.20,107.40 -3.64,108.18 -3.31,109.18">
        <request index="0"  response="000000010000" foes="000100010000" cont="0"/>
        <request index="1"  response="111000110000" foes="111100110000" cont="0"/>
        <request index="2"  response="110011110000" foes="110011110000" cont="1"/>
        <request index="3"  response="000000000000" foes="100010000000" cont="0"/>
        <request index="4"  response="000100000100" foes="100110000111" cont="0"/>
        <request index="5"  response="011100000100" foes="011110000110" cont="1"/>
        <request index="6"  response="010000000000" foes="010000000100" cont="0"/>
        <request index="7"  response="110000111000" foes="110000111100" cont="0"/>
        <request index="8"  response="110000110011" foes="110000110011" cont="1"/>
        <request index="9"  response="000000000000" foes="000000100010" cont="0"/>
        <request index="10" response="000100000100" foes="000111100110" cont="0"/>
        <request index="11" response="000100011100" foes="000110011110" cont="1"/>
    </junction>
    <junction id="J3" type="traffic_light" x="100.00" y="0.00" incLanes="-E17_0 -E3_0 -E3_1 -E5_0 -E2_0 -E2_1" intLanes=":J3_0_0 :J3_1_0 :J3_12_0 :J3_3_0 :J3_4_0 :J3_13_0 :J3_6_0 :J3_7_0 :J3_14_0 :J3_9_0 :J3_10_0 :J3_15_0" shape="96.80,10.40 103.20,10.40 103.64,8.18 104.20,7.40 104.98,6.84 105.98,6.51 107.20,6.40 107.20,-6.40 104.98,-6.84 104.20,-7.40 103.64,-8.18 103.31,-9.18 103.20,-10.40 96.80,-10.40 96.36,-8.18 95.80,-7.40 95.02,-6.84 94.02,-6.51 92.80,-6.40 92.80,6.40 95.02,6.84 95.80,7.40 96.36,8.18 96.69,9.18">
        <request index="0"  response="000000010000" foes="000100010000" cont="0"/>
        <request index="1"  response="111000110000" foes="111100110000" cont="0"/>
        <request index="2"  response="110011110000" foes="110011110000" cont="1"/>
        <request index="3"  response="000000000000" foes="100010000000" cont="0"/>
        <request index="4"  response="000100000100" foes="100110000111" cont="0"/>
        <request index="5"  response="011100000100" foes="011110000110" cont="1"/>
        <request index="6"  response="010000000000" foes="010000000100" cont="0"/>
        <request index="7"  response="110000111000" foes="110000111100" cont="0"/>
        <request index="8"  response="110000110011" foes="110000110011" cont="1"/>
        <request index="9"  response="000000000000" foes="000000100010" cont="0"/>
        <request index="10" response="000100000100" foes="000111100110" cont="0"/>
        <request index="11" response="000100011100" foes="000110011110" cont="1"/>
    </junction>
    <junction id="J4" type="priority" x="200.00" y="0.00" incLanes="-E13_0 E3_0 E3_1" intLanes=":J4_0_0 :J4_1_0" shape="203.20,-10.40 196.80,-10.40 196.36,-8.18 195.80,-7.40 195.02,-6.84 194.02,-6.51 192.80,-6.40 192.80,6.40 195.98,5.93 198.58,4.53 200.60,2.20 202.04,-1.07 202.91,-5.27">
        <request index="0" response="00" foes="00" cont="0"/>
        <request index="1" response="00" foes="00" cont="0"/>
    </junction>
    <junction id="J6" type="priority" x="100.00" y="-100.00" incLanes="E5_0 -E14_0 -E14_1" intLanes=":J6_0_0 :J6_1_0" shape="96.80,-89.60 103.20,-89.60 103.64,-91.82 104.20,-92.60 104.98,-93.16 105.98,-93.49 107.20,-93.60 107.20,-106.40 104.02,-105.93 101.42,-104.53 99.40,-102.20 97.96,-98.93 97.09,-94.73">
        <request index="0" response="00" foes="00" cont="0"/>
        <request index="1" response="00" foes="00" cont="0"/>
    </junction>
    <junction id="J7" type="dead_end" x="300.00" y="-100.00" incLanes="E15_0 E15_1" intLanes="" shape="300.00,-100.00 300.00,-106.40 300.00,-100.00"/>
    <junction id="J8" type="dead_end" x="200.00" y="-200.00" incLanes="-E16_0" intLanes="" shape="200.00,-200.00 196.80,-200.00 200.00,-200.00"/>
    <junction id="J9" type="dead_end" x="0.00" y="200.00" incLanes="E19_0" intLanes="" shape="0.00,200.00 3.20,200.00 0.00,200.00"/>

    <junction id=":J11_12_0" type="internal" x="199.06" y="-95.11" incLanes=":J11_2_0 E16_0" intLanes=":J11_4_0 :J11_5_0 :J11_6_0 :J11_7_0 :J11_10_0 :J11_11_0"/>
    <junction id=":J11_13_0" type="internal" x="203.56" y="-99.11" incLanes=":J11_5_0 E14_1" intLanes=":J11_1_0 :J11_2_0 :J11_7_0 :J11_8_0 :J11_9_0 :J11_10_0"/>
    <junction id=":J11_14_0" type="internal" x="200.94" y="-104.89" incLanes=":J11_8_0 E13_0" intLanes=":J11_0_0 :J11_1_0 :J11_4_0 :J11_5_0 :J11_10_0 :J11_11_0"/>
    <junction id=":J11_15_0" type="internal" x="196.44" y="-100.89" incLanes=":J11_11_0 -E15_1" intLanes=":J11_1_0 :J11_2_0 :J11_3_0 :J11_4_0 :J11_7_0 :J11_8_0"/>
    <junction id=":J13_12_0" type="internal" x="-0.94" y="104.89" incLanes=":J13_2_0 -E21_0" intLanes=":J13_4_0 :J13_5_0 :J13_6_0 :J13_7_0 :J13_10_0 :J13_11_0"/>
    <junction id=":J13_13_0" type="internal" x="3.56" y="100.89" incLanes=":J13_5_0 -E20_1" intLanes=":J13_1_0 :J13_2_0 :J13_7_0 :J13_8_0 :J13_9_0 :J13_10_0"/>
    <junction id=":J13_14_0" type="internal" x="0.94" y="95.11" incLanes=":J13_8_0 -E19_0" intLanes=":J13_0_0 :J13_1_0 :J13_4_0 :J13_5_0 :J13_10_0 :J13_11_0"/>
    <junction id=":J13_15_0" type="internal" x="-3.56" y="99.11" incLanes=":J13_11_0 E18_1" intLanes=":J13_1_0 :J13_2_0 :J13_3_0 :J13_4_0 :J13_7_0 :J13_8_0"/>
    <junction id=":J3_12_0" type="internal" x="99.06" y="4.89" incLanes=":J3_2_0 -E5_0" intLanes=":J3_4_0 :J3_5_0 :J3_6_0 :J3_7_0 :J3_10_0 :J3_11_0"/>
    <junction id=":J3_13_0" type="internal" x="103.56" y="0.89" incLanes=":J3_5_0 -E2_1" intLanes=":J3_1_0 :J3_2_0 :J3_7_0 :J3_8_0 :J3_9_0 :J3_10_0"/>
    <junction id=":J3_14_0" type="internal" x="100.94" y="-4.89" incLanes=":J3_8_0 -E17_0" intLanes=":J3_0_0 :J3_1_0 :J3_4_0 :J3_5_0 :J3_10_0 :J3_11_0"/>
    <junction id=":J3_15_0" type="internal" x="96.44" y="-0.89" incLanes=":J3_11_0 -E3_1" intLanes=":J3_1_0 :J3_2_0 :J3_3_0 :J3_4_0 :J3_7_0 :J3_8_0"/>

    <connection from="-E13" to="-E3" fromLane="0" toLane="1" via=":J4_0_0" dir="l" state="M"/>
    <connection from="-E14" to="-E5" fromLane="1" toLane="0" via=":J6_1_0" dir="r" state="M"/>
    <connection from="-E15" to="-E13" fromLane="1" toLane="0" via=":J11_3_0" tl="J11" linkIndex="3" dir="r" state="O"/>
    <connection from="-E15" to="-E14" fromLane="1" toLane="1" via=":J11_4_0" tl="J11" linkIndex="4" dir="s" state="O"/>
    <connection from="-E15" to="-E16" fromLane="1" toLane="0" via=":J11_5_0" tl="J11" linkIndex="5" dir="l" state="o"/>
    <connection from="-E17" to="E2" fromLane="0" toLane="1" via=":J3_0_0" tl="J3" linkIndex="0" dir="r" state="o"/>
    <connection from="-E17" to="E5" fromLane="0" toLane="0" via=":J3_1_0" tl="J3" linkIndex="1" dir="s" state="o"/>
    <connection from="-E17" to="E3" fromLane="0" toLane="1" via=":J3_2_0" tl="J3" linkIndex="2" dir="l" state="o"/>
    <connection from="-E18" to="-E17" fromLane="1" toLane="0" via=":J12_1_0" dir="r" state="M"/>
    <connection from="-E19" to="E20" fromLane="0" toLane="1" via=":J13_0_0" tl="J13" linkIndex="0" dir="r" state="o"/>
    <connection from="-E19" to="E21" fromLane="0" toLane="0" via=":J13_1_0" tl="J13" linkIndex="1" dir="s" state="o"/>
    <connection from="-E19" to="-E18" fromLane="0" toLane="1" via=":J13_2_0" tl="J13" linkIndex="2" dir="l" state="o"/>
    <connection from="-E2" to="E5" fromLane="1" toLane="0" via=":J3_9_0" tl="J3" linkIndex="9" dir="r" state="O"/>
    <connection from="-E2" to="E3" fromLane="1" toLane="1" via=":J3_10_0" tl="J3" linkIndex="10" dir="s" state="O"/>
    <connection from="-E2" to="E17" fromLane="1" toLane="0" via=":J3_11_0" tl="J3" linkIndex="11" dir="l" state="o"/>
    <connection from="-E20" to="E21" fromLane="1" toLane="0" via=":J13_9_0" tl="J13" linkIndex="9" dir="r" state="O"/>