<?xml version="1.0" encoding="UTF-8"?>

<!-- generated on 2025-08-13 22:05:06.915909 by randomTrips.py v1_24_0+0000-b72eb3fabc8
<configuration>
    <net-file value="sumo/scenarios/downtown/net.net.xml"/>
    <route-file value="sumo/scenarios/downtown/routes.rou.xml"/>
    <trip-attributes value="departLane=&quot;best&quot; departSpeed=&quot;max&quot;"/>
    <seed value="31"/>
    <end value="1200.0"/>
    <period value="0.7"/>
</configuration>
-->

<routes xmlns:xsi="http://www.w3.org/2001/XMLSchema-instance" xsi:noNamespaceSchemaLocation="http://sumo.dlr.de/xsd/routes_file.xsd">
    <trip id="0" depart="0.00" from="A0B0" to="A4B4" departLane="best" departSpeed="max"/>
    <trip id="1" depart="0.70" from="C2C3" to="E0D0" departLane="best" departSpeed="max"/>
    <trip id="2" depart="1.40" from="B0A0" to="A4B4" departLane="best" departSpeed="max"/>
    <trip id="3" depart="2.10" from="B3A3" to="E2E1" departLane="best" departSpeed="max"/>
    <trip id="4" depart="2.80" from="B0B1" to="E1F1" departLane="best" departSpeed="max"/>
    <trip id="5" depart="3.50" from="D5C5" to="B0A0" departLane="best" departSpeed="max"/>
    <trip id="6" depart="4.20" from="D1D0" to="C4B4" departLane="best" departSpeed="max"/>
    <trip id="7" depart="4.90" from="C3B3" to="F5F4" departLane="best" departSpeed="max"/>
    <trip id="8" depart="5.60" from="A4A3" to="A1A0" departLane="best" departSpeed="max"/>
    <trip id="9" depart="6.30" from="F3E3" to="C2D2" departLane="best" departSpeed="max"/>
    <trip id="10" depart="7.00" from="B2A2" to="C0C1" departLane="best" departSpeed="max"/>
    <trip id="11" depart="7.70" from="C1C2" to="F3F4" departLane="best" departSpeed="max"/>
    <trip id="12" depart="8.40" from="B2B3" to="B2C2" departLane="best" departSpeed="max"/>
    <trip id="13" depart="9.10" from="D2E2" to="D1D2" departLane="best" departSpeed="max"/>
    <trip id="14" depart="9.80" from="F3F4" to="E4F4" departLane="best" departSpeed="max"/>
    <trip id="15" depart="10.50" from="C1C0" to="B2B1" departLane="best" departSpeed="max"/>
    <trip id="16" depart="11.20" from="E4F4" to="F5E5" departLane="best" departSpeed="max"/>
    <trip id="17" depart="11.90" from="A1A2" to="E1F1" departLane="best" departSpeed="max"/>
    <trip id="18" depart="12.60" from="F0E0" to="D4E4" departLane="best" departSpeed="max"/>
    <trip id="19" depart="13.30" from="B2C2" to="E3E4" departLane="best" departSpeed="max"/>
    <trip id="20" depart="14.00" from="E1E2" to="B2A2" departLane="best" departSpeed="max"/>
    <trip id="21" depart="14.70" from="D4D3" to="B2C2" departLane="best" departSpeed="max"/>
    <trip id="22" depart="15.40" from="A1B1" to="C0D0" departLane="best" departSpeed="max"/>
    <trip id="23" depart="16.10" from="C0D0" to="C2C3" departLane="best" departSpeed="max"/>
    <trip id="24" depart="16.80" from="D4D5" to="E4F4" departLane="best" departSpeed="max"/>
    <trip id="25" depart="17.50" from="F4E4" to="F4F5" departLane="best" departSpeed="max"/>
    <trip id="26" depart="18.20" from="F5F4" to="E3E2" departLane="best" departSpeed="max"/>
    <trip id="27" depart="18.90" from="B5B4" to="B1B2" departLane="best" departSpeed="max"/>
    <trip id="28" depart="19.60" from="D3E3" to="D1D2" departLane="best" departSpeed="max"/>
    <trip id="29" depart="20.30" from="D5D4" to="A4A3" departLane="best" departSpeed="max"/>
    <trip id="30" depart="21.00" from="B2A2" to="F2F1" departLane="best" departSpeed="max"/>
    <trip id="31" depart="21.70" from="D3D2" to="E0E1" departLane="best" departSpeed="max"/>
    <trip id="32" depart="22.40" from="A4A3" to="C2C3" departLane="best" departSpeed="max"/>
    <trip id="33" depart="23.10" from="F2E2" to="D4D5" departLane="best" departSpeed="max"/>
    <trip id="34" depart="23.80" from="F5E5" to="B2A2" departLane="best" departSpeed="max"/>
    <trip id="35" depart="24.50" from="C4C3" to="E3F3" departLane="best" departSpeed="max"/>
    <trip id="36" depart="25.20" from="C4B4" to="E3E2" departLane="best" departSpeed="max"/>
    <trip id="37" depart="25.90" from="D2C2" to="A5A4" departLane="best" departSpeed="max"/>
    <trip id="38" depart="26.60" from="A4A3" to="F4F5" departLane="best" departSpeed="max"/>
    <trip id="39" depart="27.30" from="A5A4" to="B2A2" departLane="best" departSpeed="max"/>
    <trip id="40" depart="28.00" from="C0D0" to="E1D1" departLane="best" departSpeed="max"/>
    <trip id="41" depart="28.70" from="E5E4" to="C5B5" departLane="best" departSpeed="max"/>
    <trip id="42" depart="29.40" from="C5D5" to="E3E2" departLane="best" departSpeed="max"/>
    <trip id="43" depart="30.10" from="B4B5" to="C1D1" departLane="best" departSpeed="max"/>
    <trip id="44" depart="30.80" from="D3D4" to="D4D3" departLane="best" departSpeed="max"/>
    <trip id="45" depart="31.50" from="A1B1" to="A4B4" departLane="best" departSpeed="max"/>
    <trip id="46" depart="32.20" from="B0A0" to="E1E2" departLane="best" departSpeed="max"/>
    <trip id="47" depart="32.90" from="E0E1" to="F4F3" departLane="best" departSpeed="max"/>
    <trip id="48" depart="33.60" from="E2F2" to="B3C3" departLane="best" departSpeed="max"/>
    <trip id="49" depart="34.30" from="E2E3" to="F5E5" departLane="best" departSpeed="max"/>
    <trip id="50" depart="35.00" from="C1B1" to="A0B0" departLane="best" departSpeed="max"/>
    <trip id="51" depart="35.70" from="C2B2" to="B4B5" departLane="best" departSpeed="max"/>
    <trip id="52" depart="36.40" from="B1B2" to="A2A1" departLane="best" departSpeed="max"/>
    <trip id="53" depart="37.10" from="A5A4" to="E5F5" departLane="best" departSpeed="max"/>
    <trip id="54" depart="37.80" from="A2A1" to="D3D4" departLane="best" departSpeed="max"/>
    <trip id="55" depart="38.50" from="B2B1" to="B2A2" departLane="best" departSpeed="max"/>
    <trip id="56" depart="39.20" from="E4E3" to="B5A5" departLane="best" departSpeed="max"/>
    <trip id="57" depart="39.90" from="B1C1" to="C4C3" departLane="best" departSpeed="max"/>
    <trip id="58" depart="40.60" from="E0E1" to="D0E0" departLane="best" departSpeed="max"/>
    <trip id="59" depart="41.30" from="E5F5" to="C2D2" departLane="best" departSpeed="max"/>
    <trip id="60" depart="42.00" from="D0E0" to="E1E0" departLane="best" departSpeed="max"/>
    <trip id="61" depart="42.70" from="C4C5" to="E1E0" departLane="best" departSpeed="max"/>
    <trip id="62" depart="43.40" from="C4D4" to="B0A0" departLane="best" departSpeed="max"/>
    <trip id="63" depart="44.10" from="A5A4" to="E3D3" departLane="best" departSpeed="max"/>
    <trip id="64" depart="44.80" from="E2D2" to="F3F2" departLane="best" departSpeed="max"/>
    <trip id="65" depart="45.50" from="E0D0" to="D2D3" departLane="best" departSpeed="max"/>
    <trip id="66" depart="46.20" from="B1A1" to="E5E4" departLane="best" departSpeed="max"/>
    <trip id="67" depart="46.90" from="A5A4" to="C3C2" departLane="best" departSpeed="max"/>
    <trip id="68" depart="47.60" from="B0A0" to="C2B2" departLane="best" departSpeed="max"/>
    <trip id="69" depart="48.30" from="B5B4" to="C3C4" departLane="best" departSpeed="max"/>
    <trip id="70" depart="49.00" from="E1D1" to="D1D0" departLane="best" departSpeed="max"/>
    <trip id="71" depart="49.70" from="B3B4" to="E3D3" departLane="best" departSpeed="max"/>
    <trip id="72" depart="50.40" from="E1F1" to="E4E5" departLane="best" departSpeed="max"/>
    <trip id="73" depart="51.10" from="A1A2" to="D3D4" departLane="best" departSpeed="max"/>
    <trip id="74" depart="51.80" from="F1F0" to="B4A4" departLane="best" departSpeed="max"/>
    <trip id="75" depart="52.50" from="B2B1" to="E4D4" departLane="best" departSpeed="max"/>
    <trip id="76" depart="53.20" from="C1C2" to="C2D2" departLane="best" departSpeed="max"/>
    <trip id="77" depart="53.90" from="E4E3" to="C2C1" departLane="best" departSpeed="max"/>
    <trip id="78" depart="54.60" from="B2A2" to="B2B3" departLane="best" departSpeed="max"/>
    <trip id="79" depart="55.30" from="C1B1" to="E0E1" departLane="best" departSpeed="max"/>
    <trip id="80" depart="56.00" from="C1D1" to="E2F2" departLane="best" departSpeed="max"/>
    <trip id="81" depart="56.70" from="A2B2" to="B3B4" departLane="best" departSpeed="max"/>
    <trip id="82" depart="57.40" from="D3E3" to="C5B5" departLane="best" departSpeed="max"/>
    <trip id="83" depart="58.10" from="C5D5" to="F3E3" departLane="best" departSpeed="max"/>
    <trip id="84" depart="58.80" from="B4B5" to="B1B2" departLane="best" departSpeed="max"/>
    <trip id="85" depart="59.50" from="A1B1" to="C5B5" departLane="best" departSpeed="max"/>
    <trip id="86" depart="60.20" from="B5A5" to="C4D4" departLane="best" departSpeed="max"/>
    <trip id="87" depart="60.90" from="A0A1" to="A0A1" departLane="best" departSpeed="max"/>
    <trip id="88" depart="61.60" from="C2B2" to="E2E1" departLane="best" departSpeed="max"/>
    <trip id="89" depart="62.30" from="B5B4" to="F2E2" departLane="best" departSpeed="max"/>
    <trip id="90" depart="63.00" from="D2D3" to="C2D2" departLane="best" departSpeed="max"/>
    <trip id="91" depart="63.70" from="E3D3" to="B3A3" departLane="best" departSpeed="max"/>
    <trip id="92" depart="64.40" from="D3D2" to="E5D5" departLane="best" departSpeed="max"/>
    <trip id="93" depart="65.10" from="D1D0" to="C0B0" departLane="best" departSpeed="max"/>
    <trip id="94" depart="65.80" from="A4A3" to="D2D1" departLane="best" departSpeed="max"/>
    <trip id="95" depart="66.50" from="B1C1" to="C1D1" departLane="best" departSpeed="max"/>
    <trip id="96" depart="67.20" from="D1D2" to="F3E3" departLane="best" departSpeed="max"/>
    <trip id="97" depart="67.90" from="D5D4" to="D0E0" departLane="best" departSpeed="max"/>
    <trip id="98" depart="68.60" from="E5F5" to="B5C5" departLane="best" departSpeed="max"/>
    <trip id="99" depart="69.30" from="C2C1" to="D5E5" departLane="best" departSpeed="max"/>
    <trip id="100" depart="70.00" from="D1E1" to="B2C2" departLane="best" departSpeed="max"/>
    <trip id="101" depart="70.70" from="C3B3" to="E4E3" departLane="best" departSpeed="max"/>
    <trip id="102" depart="71.40" from="B3B4" to="E0F0" departLane="best" departSpeed="max"/>
    <trip id="103" depart="72.10" from="A2A1" to="F3F4" departLane="best" departSpeed="max"/>
    <trip id="104" depart="72.80" from="E0D0" to="C0B0" departLane="best" departSpeed="max"/>
    <trip id="105" depart="73.50" from="F4F5" to="E3E4" departLane="best" departSpeed="max"/>
    <trip id="106" depart="74.20" from="A2B2" to="B3B4" departLane="best" departSpeed="max"/>
    <trip id="107" depart="74.90" from="C5D5" to="F5F4" departLane="best" departSpeed="max"/>
    <trip id="108" depart="75.60" from="B0A0" to="A2A1" departLane="best" departSpeed="max"/>
    <trip id="109" depart="76.30" from="B5C5" to="A2A1" departLane="best" departSpeed="max"/>
    <trip id="110" depart="77.00" from="C3B3" to="D1D0" departLane="best" departSpeed="max"/>
    <trip id="111" depart="77.70" from="C3D3" to="B0A0" departLane="best" departSpeed="max"/>
    <trip id="112" depart="78.40" from="A1A0" to="E3F3" departLane="best" departSpeed="max"/>
    <trip id="113" depart="79.10" from="C3D3" to="C5B5" departLane="best" departSpeed="max"/>
    <trip id="114" depart="79.80" from="C5B5" to="E0D0" departLane="best" departSpeed="max"/>
    <trip id="115" depart="80.50" from="F1F2" to="E4E5" departLane="best" departSpeed="max"/>
    <trip id="116" depart="81.20" from="E1E2" to="C0D0" departLane="best" departSpeed="max"/>
    <trip id="117" depart="81.90" from="B1B0" to="A3B3" departLane="best" departSpeed="max"/>
    <trip id="118" depart="82.60" from="E5F5" to="A2A3" departLane="best" departSpeed="max"/>
    <trip id="119" depart="83.30" from="D2D1" to="F2E2" departLane="best" departSpeed="max"/>
    <trip id="120" depart="84.00" from="C0B0" to="C2C1" departLane="best" departSpeed="max"/>
    <trip id="121" depart="84.70" from="C3C2" to="F3F2" departLane="best" departSpeed="max"/>
    <trip id="122" depart="85.40" from="E0D0" to="E4F4" departLane="best" departSpeed="max"/>
    <trip id="123" depart="86.10" from="A1B1" to="E1E2" departLane="best" departSpeed="max"/>
    <trip id="124" depart="86.80" from="C4C3" to="C2D2" departLane="best" departSpeed="max"/>
    <trip id="125" depart="87.50" from="E4D4" to="E1F1" departLane="best" departSpeed="max"/>
    <trip id="126" depart="88.20" from="F2E2" to="E1F1" departLane="best" departSpeed="max"/>
    <trip id="127" depart="88.90" from="F2E2" to="C3C4" departLane="best" departSpeed="max"/>
    <trip id="128" depart="89.60" from="D1E1" to="E3E2" departLane="best" departSpeed="max"/>
    <trip id="129" depart="90.30" from="C4C3" to="B0A0" departLane="best" departSpeed="max"/>
    <trip id="130" depart="91.00" from="D2E2" to="F0E0" departLane="best" departSpeed="max"/>
    <trip id="131" depart="91.70" from="F0E0" to="A5B5" departLane="best" departSpeed="max"/>
    <trip id="132" depart="92.40" from="C2B2" to="B3A3" departLane="best" departSpeed="max"/>
    <trip id="133" depart="93.10" from="C0D0" to="F4E4" departLane="best" departSpeed="max"/>
    <trip id="134" depart="93.80" from="C3C2" to="B5C5" departLane="best" departSpeed="max"/>
    <trip id="135" depart="94.50" from="B4B3" to="C3D3" departLane="best" departSpeed="max"/>
    <trip id="136" depart="95.20" from="D5D4" to="C1B1" departLane="best" departSpeed="max"/>
    <trip id="137" depart="95.90" from="B1C1" to="B3A3" departLane="best" departSpeed="max"/>
    <trip id="138" depart="96.60" from="B4A4" to="F1F2" departLane="best" departSpeed="max"/>
    <trip id="139" depart="97.30" from="B1B0" to="E2E1" departLane="best" departSpeed="max"/>
    <trip id="140" depart="98.00" from="A4A5" to="E3E2" departLane="best" departSpeed="max"/>
    <trip id="141" depart="98.70" from="B4A4" to="E3D3" departLane="best" departSpeed="max"/>
    <trip id="142" depart="99.40" from="C3C4" to="A3A4" departLane="best" departSpeed="max"/>
    <trip id="143" depart="100.10" from="A4A3" to="E3E4" departLane="best" departSpeed="max"/>
    <trip id="144" depart="100.80" from="D1D2" to="C5C4" departLane="best" departSpeed="max"/>
    <trip id="145" depart="101.50" from="C1C0" to="E0D0" departLane="best" departSpeed="max"/>
    <trip id="146" depart="102.20" from="C5B5" to="A2B2" departLane="best" departSpeed="max"/>
    <trip id="147" depart="102.90" from="D3D2" to="B5C5" departLane="best" departSpeed="max"/>
    <trip id="148" depart="103.60" from="E5D5" to="D1D2" departLane="best" departSpeed="max"/>
    <trip id="149" depart="104.30" from="E2F2" to="A5A4" departLane="best" departSpeed="max"/>
    <trip id="150" depart="105.00" from="E0F0" to="D3D4" departLane="best" departSpeed="max"/>
    <trip id="151" depart="105.70" from="E5E4" to="F1E1" departLane="best" departSpeed="max"/>
    <trip id="152" depart="106.40" from="D1E1" to="D3C3" departLane="best" departSpeed="max"/>
    <trip id="153" depart="107.10" from="E2F2" to="B4A4" departLane="best" departSpeed="max"/>
    <trip id="154" depart="107.80" from="D1D2" to="E3E2" departLane="best" departSpeed="max"/>
    <trip id="155" depart="108.50" from="D3C3" to="D1D2" departLane="best" departSpeed="max"/>
    <trip id="156" depart="109.20" from="E5E4" to="F4F5" departLane="best" departSpeed="max"/>
    <trip id="157" depart="109.90" from="B4A4" to="A3A2" departLane="best" departSpeed="max"/>
    <trip id="158" depart="110.60" from="D3D4" to="B0B1" departLane="best" departSpeed="max"/>
    <trip id="159" depart="111.30" from="F4F3" to="C4D4" departLane="best" departSpeed="max"/>
    <trip id="160" depart="112.00" from="D1D0" to="E4E3" departLane="best" departSpeed="max"/>
    <trip id="161" depart="112.70" from="F0E0" to="B0B1" departLane="best" departSpeed="max"/>
    <trip id="162" depart="113.40" from="C4C3" to="B1B2" departLane="best" departSpeed="max"/>
    <trip id="163" depart="114.10" from="C4C5" to="A5B5" departLane="best" departSpeed="max"/>
    <trip id="164" depart="114.80" from="F0F1" to="C1C0" departLane="best" departSpeed="max"/>
    <trip id="165" depart="115.50" from="C2C1" to="F1F0" departLane="best" departSpeed="max"/>
    <trip id="166" depart="116.20" from="E4E3" to="C0D0" departLane="best" departSpeed="max"/>
    <trip id="167" depart="116.90" from="C5D5" to="D5C5" departLane="best" departSpeed="max"/>
    <trip id="168" depart="117.60" from="B1C1" to="B0A0" departLane="best" departSpeed="max"/>
    <trip id="169" depart="118.30" from="E5E4" to="B1A1" departLane="best" departSpeed="max"/>
    <trip id="170" depart="119.00" from="E0F0" to="E1F1" departLane="best" departSpeed="max"/>
    <trip id="171" depart="119.70" from="D2E2" to="C1B1" departLane="best" departSpeed="max"/>
    <trip id="172" depart="120.40" from="E5E4" to="E3E2" departLane="best" departSpeed="max"/>
    <trip id="173" depart="121.10" from="A3A2" to="F1F0" departLane="best" departSpeed="max"/>
    <trip id="174" depart="121.80" from="D4D3" to="B4C4" departLane="best" departSpeed="max"/>
    <trip id="175" depart="122.50" from="B1B0" to="A4A3" departLane="best" departSpeed="max"/>
    <trip id="176" depart="123.20" from="E4D4" to="E5D5" departLane="best" departSpeed="max"/>
    <trip id="177" depart="123.90" from="C1B1" to="B1B2" departLane="best" departSpeed="max"/>
    <trip id="178" depart="124.60" from="A3A2" to="C3B3" departLane="best" departSpeed="max"/>
    <trip id="179" depart="125.30" from="B5A5" to="A2A3" departLane="best" departSpeed="max"/>
    <trip id="180" depart="126.00" from="B5A5" to="E4E3" departLane="best" departSpeed="max"/>
    <trip id="181" depart="126.70" from="A2B2" to="C2D2" departLane="best" departSpeed="max"/>
    <trip id="182" depart="127.40" from="D0D1" to="B1A1" departLane="best" departSpeed="max"/>
    <trip id="183" depart="128.10" from="A1B1" to="A3A2" departLane="best" departSpeed="max"/>
    <trip id="184" depart="128.80" from="B0B1" to="F4F3" departLane="best" departSpeed="max"/>
    <trip id="185" depart="129.50" from="E5F5" to="E0F0" departLane="best" departSpeed="max"/>
    <trip id="186" depart="130.20" from="F1F0" to="C0C1" departLane="best" departSpeed="max"/>
    <trip id="187" depart="130.90" from="B3B4" to="F0E0" departLane="best" departSpeed="max"/>
    <trip id="188" depart="131.60" from="D3D2" to="F2F1" departLane="best" departSpeed="max"/>
    <trip id="189" depart="132.30" from="C1C2" to="C3B3" departLane="best" departSpeed="max"/>
    <trip id="190" depart="133.00" from="E1E0" to="F0F1" departLane="best" departSpeed="max"/>
    <trip id="191" depart="133.70" from="B1A1" to="B4A4" departLane="best" departSpeed="max"/>
    <trip id="192" depart="134.40" from="A0B0" to="D2C2" departLane="best" departSpeed="max"/>
    <trip id="193" depart="135.10" from="F2F1" to="D2D1" departLane="best" departSpeed="max"/>
    <trip id="194" depart="135.80" from="B0B1" to="E0D0" departLane="best" departSpeed="max"/>
    <trip id="195" depart="136.50" from="D4D5" to="A4A5" departLane="best" departSpeed="max"/>
    <trip id="196" depart="137.20" from="F2E2" to="D5C5" departLane="best" departSpeed="max"/>
    <trip id="197" depart="137.90" from="C5C4" to="C1B1" departLane="best" departSpeed="max"/>
    <trip id="198" depart="138.60" from="B1A1" to="C4D4" departLane="best" departSpeed="max"/>
    <trip id="199" depart="139.30" from="C1C2" to="B3A3" departLane="best" departSpeed="max"/>
    <trip id="200" depart="140.00" from="D4D5" to="D5C5" departLane="best" departSpeed="max"/>
    <trip id="201" depart="140.70" from="F3F4" to="F4F3" departLane="best" departSpeed="max"/>
    <trip id="202" depart="141.40" from="C4C5" to="E1D1" departLane="best" departSpeed="max"/>
    <trip id="203" depart="142.10" from="C2B2" to="C3D3" departLane="best" departSpeed="max"/>
    <trip id="204" depart="142.80" from="D2D1" to="F4F5" departLane="best" departSpeed="max"/>
    <trip id="205" depart="143.50" from="A2A1" to="C4C5" departLane="best" departSpeed="max"/>
    <trip id="206" depart="144.20" from="C0D0" to="E3F3" departLane="best" departSpeed="max"/>
    <trip id="207" depart="144.90" from="F3F4" to="C4D4" departLane="best" departSpeed="max"/>
    <trip id="208" depart="145.60" from="A3A4" to="D3C3" departLane="best" departSpeed="max"/>
    <trip id="209" depart="146.30" from="D2E2" to="D5E5" departLane="best" departSpeed="max"/>
    <trip id="210" depart="147.00" from="E3D3" to="C4C5" departLane="best" departSpeed="max"/>
    <trip id="211" depart="147.70" from="D1D2" to="E2F2" departLane="best" departSpeed="max"/>
    <trip id="212" depart="148.40" from="A1A2" to="B3B2" departLane="best" departSpeed="max"/>
    <trip id="213" depart="149.10" from="E0D0" to="F4F5" departLane="best" departSpeed="max"/>
    <trip id="214" depart="149.80" from="F3F2" to="B4B5" departLane="best" departSpeed="max"/>
    <trip id="215" depart="150.50" from="F4F3" to="B4B5" departLane="best" departSpeed="max"/>
    <trip id="216" depart="151.20" from="C4C3" to="B1A1" departLane="best" departSpeed="max"/>
    <trip id="217" depart="151.90" from="D3D2" to="C2C3" departLane="best" departSpeed="max"/>
    <trip id="218" depart="152.60" from="E0D0" to="F3F4" departLane="best" departSpeed="max"/>
    <trip id="219" depart="153.30" from="A5B5" to="D4E4" departLane="best" departSpeed="max"/>
    <trip id="220" depart="154.00" from="D3D2" to="B4B3" departLane="best" departSpeed="max"/>
    <trip id="221" depart="154.70" from="A1B1" to="F3E3" departLane="best" departSpeed="max"/>
    <trip id="222" depart="155.40" from="E0E1" to="D4C4" departLane="best" departSpeed="max"/>
    <trip id="223" depart="156.10" from="A4A5" to="F1F0" departLane="best" departSpeed="max"/>
    <trip id="224" depart="156.80" from="C2C3" to="C4C5" departLane="best" departSpeed="max"/>
    <trip id="225" depart="157.50" from="D1E1" to="C4B4" departLane="best" departSpeed="max"/>
    <trip id="226" depart="158.20" from="F3F4" to="C4D4" departLane="best" departSpeed="max"/>
    <trip id="227" depart="158.90" from="D5E5" to="E2F2" departLane="best" departSpeed="max"/>
    <trip id="228" depart="159.60" from="F2F3" to="B1B0" departLane="best" departSpeed="max"/>
    <trip id="229" depart="160.30" from="C0D0" to="F3F2" departLane="best" departSpeed="max"/>
    <trip id="230" depart="161.00" from="D3D2" to="C1D1" departLane="best" departSpeed="max"/>
    <trip id="231" depart="161.70" from="F0F1" to="A5A4" departLane="best" departSpeed="max"/>
    <trip id="232" depart="162.40" from="B3C3" to="A3A2" departLane="best" departSpeed="max"/>
    <trip id="233" depart="163.10" from="D5D4" to="C5C4" departLane="best" departSpeed="max"/>
    <trip id="234" depart="163.80" from="B5B4" to="C3D3" departLane="best" departSpeed="max"/>
    <trip id="235" depart="164.50" from="B3C3" to="E1D1" departLane="best" departSpeed="max"/>
    <trip id="236" depart="165.20" from="E2E3" to="C2B2" departLane="best" departSpeed="max"/>
    <trip id="237" depart="165.90" from="F0E0" to="A2A1" departLane="best" departSpeed="max"/>
    <trip id="238" depart="166.60" from="D2C2" to="B0C0" departLane="best" departSpeed="max"/>
    <trip id="239" depart="167.30" from="A5A4" to="D1E1" departLane="best" departSpeed="max"/>
    <trip id="240" depart="168.00" from="A3B3" to="A3A2" departLane="best" departSpeed="max"/>
    <trip id="241" depart="168.70" from="B0A0" to="C2B2" departLane="best" departSpeed="max"/>
    <trip id="242" depart="169.40" from="E4E5" to="B4C4" departLane="best" departSpeed="max"/>
    <trip id="243" depart="170.10" from="A5A4" to="E2F2" departLane="best" departSpeed="max"/>
    <trip id="244" depart="170.80" from="E4E3" to="F5F4" departLane="best" departSpeed="max"/>
    <trip id="245" depart="171.50" from="A2A1" to="B1A1" departLane="best" departSpeed="max"/>
    <trip id="246" depart="172.20" from="C3D3" to="F5E5" departLane="best" departSpeed="max"/>
    <trip id="247" depart="172.90" from="D1D0" to="F1E1" departLane="best" departSpeed="max"/>
    <trip id="248" depart="173.60" from="B2C2" to="C4D4" departLane="best" departSpeed="max"/>
    <trip id="249" depart="174.30" from="E0D0" to="B3A3" departLane="best" departSpeed="max"/>
    <trip id="250" depart="175.00" from="D0E0" to="E4E3" departLane="best" departSpeed="max"/>
    <trip id="251" depart="175.70" from="E4D4" to="E0E1" departLane="best" departSpeed="max"/>
    <trip id="252" depart="176.40" from="E4E5" to="F5F4" departLane="best" departSpeed="max"/>
    <trip id="253" depart="177.10" from="D3D2" to="B3B4" departLane="best" departSpeed="max"/>
    <trip id="254" depart="177.80" from="B2C2" to="A2A3" departLane="best" departSpeed="max"/>
    <trip id="255" depart="178.50" from="F2F1" to="D2D1" departLane="best" departSpeed="max"/>
    <trip id="256" depart="179.20" from="D3D2" to="F0E0" departLane="best" departSpeed="max"/>
    <trip id="257" depart="179.90" from="E0D0" to="C2C3" departLane="best" departSpeed="max"/>
    <trip id="258" depart="180.60" from="D2E2" to="A3A4" departLane="best" departSpeed="max"/>
    <trip id="259" depart="181.30" from="B3C3" to="C1B1" departLane="best" departSpeed="max"/>
    <trip id="260" depart="182.00" from="E3E4" to="D5C5" departLane="best" departSpeed="max"/>
    <trip id="261" depart="182.70" from="D3D2" to="C2C3" departLane="best" departSpeed="max"/>
    <trip id="262" depart="183.40" from="C1C0" to="C2C1" departLane="best" departSpeed="max"/>
    <trip id="263" depart="184.10" from="A2A3" to="C1C2" departLane="best" departSpeed="max"/>
    <trip id="264" depart="184.80" from="F2E2" to="E4D4" departLane="best" departSpeed="max"/>
    <trip id="265" depart="185.50" from="B3B4" to="C5D5" departLane="best" departSpeed="max"/>
    <trip id="266" depart="186.20" from="E2D2" to="B2B1" departLane="best" departSpeed="max"/>
    <trip id="267" depart="186.90" from="C1C0" to="D2E2" departLane="best" departSpeed="max"/>
    <trip id="268" depart="187.60" from="B1C1" to="F2E2" departLane="best" departSpeed="max"/>
    <trip id="269" depart="188.30" from="A1A0" to="F0F1" departLane="best" departSpeed="max"/>
    <trip id="270" depart="189.00" from="D5D4" to="C2C3" departLane="best" departSpeed="max"/>
    <trip id="271" depart="189.70" from="B4C4" to="F0E0" departLane="best" departSpeed="max"/>
    <trip id="272" depart="190.40" from="E1D1" to="B2B3" departLane="best" departSpeed="max"/>
    <trip id="273" depart="191.10" from="C0B0" to="A4A3" departLane="best" departSpeed="max"/>
    <trip id="274" depart="191.80" from="D4C4" to="C3C2" departLane="best" departSpeed="max"/>
    <trip id="275" depart="192.50" from="C0B0" to="E0F0" departLane="best" departSpeed="max"/>
    <trip id="276" depart="193.20" from="B3C3" to="B0B1" departLane="best" departSpeed="max"/>
    <trip id="277" depart="193.90" from="E3E4" to="F1E1" departLane="best" departSpeed="max"/>
    <trip id="278" depart="194.60" from="E3F3" to="D2C2" departLane="best" departSpeed="max"/>
    <trip id="279" depart="195.30" from="E1E0" to="E5F5" departLane="best" departSpeed="max"/>
    <trip id="280" depart="196.00" from="A1B1" to="B5A5" departLane="best" departSpeed="max"/>
    <trip id="281" depart="196.70" from="C1C0" to="E1E2" departLane="best" departSpeed="max"/>
    <trip id="282" depart="197.40" from="C0D0" to="E2E3" departLane="best" departSpeed="max"/>
    <trip id="283" depart="198.10" from="B3C3" to="F3F2" departLane="best" departSpeed="max"/>
    <trip id="284" depart="198.80" from="C3D3" to="D2E2" departLane="best" departSpeed="max"/>
    <trip id="285" depart="199.50" from="D4C4" to="E4E3" departLane="best" departSpeed="max"/>
    <trip id="286" depart="200.20" from="D2C2" to="B2B3" departLane="best" departSpeed="max"/>
    <trip id="287" depart="200.90" from="C3D3" to="D2C2" departLane="best" departSpeed="max"/>
    <trip id="288" depart="201.60" from="A3A2" to="E4E5" departLane="best" departSpeed="max"/>
    <trip id="289" depart="202.30" from="B5B4" to="F2F1" departLane="best" departSpeed="max"/>
    <trip id="290" depart="203.00" from="C1D1" to="F3F4" departLane="best" departSpeed="max"/>
    <trip id="291" depart="203.70" from="E1E0" to="C2C3" departLane="best" departSpeed="max"/>
    <trip id="292" depart="204.40" from="E0F0" to="A0A1" departLane="best" departSpeed="max"/>
    <trip id="293" depart="205.10" from="A3B3" to="D2D3" departLane="best" departSpeed="max"/>
    <trip id="294" depart="205.80" from="B5B4" to="C2D2" departLane="best" departSpeed="max"/>
    <trip id="295" depart="206.50" from="E0F0" to="C4D4" departLane="best" departSpeed="max"/>
    <trip id="296" depart="207.20" from="D3D4" to="E2D2" departLane="best" departSpeed="max"/>
    <trip id="297" depart="207.90" from="E4F4" to="A4A5" departLane="best" departSpeed="max"/>
    <trip id="298" depart="208.60" from="E4E5" to="E2D2" departLane="best" departSpeed="max"/>
    <trip id="299" depart="209.30" from="B3A3" to="A3B3" departLane="best" departSpeed="max"/>
    <trip id="300" depart="210.00" from="B2A2" to="A3B3" departLane="best" departSpeed="max"/>
    <trip id="301" depart="210.70" from="D2D1" to="F5F4" departLane="best" departSpeed="max"/>
    <trip id="302" depart="211.40" from="C5C4" to="B4B5" departLane="best" departSpeed="max"/>
    <trip id="303" depart="212.10" from="B1B0" to="F4F3" departLane="best" departSpeed="max"/>
    <trip id="304" depart="212.80" from="D1D2" to="B3B2" departLane="best" departSpeed="max"/>
    <trip id="305" depart="213.50" from="F2E2" to="C3C2" departLane="best" departSpeed="max"/>
    <trip id="306" depart="214.20" from="F5E5" to="D0D1" departLane="best" departSpeed="max"/>
    <trip id="307" depart="214.90" from="B3C3" to="B1C1" departLane="best" departSpeed="max"/>
    <trip id="308" depart="215.60" from="A0B0" to="E4D4" departLane="best" departSpeed="max"/>
    <trip id="309" depart="216.30" from="C0C1" to="E1E2" departLane="best" departSpeed="max"/>
    <trip id="310" depart="217.00" from="E4F4" to="C2D2" departLane="best" departSpeed="max"/>
    <trip id="311" depart="217.70" from="D0D1" to="E1E0" departLane="best" departSpeed="max"/>