<?xml version="1.0" encoding="UTF-8"?>

<!-- generated on 2025-08-14 10:46:01.351608 by randomTrips.py v1_24_0+0000-b72eb3fabc8
<configuration>
    <net-file value="sumo/scenarios/arterial/net.net.xml"/>
    <route-file value="sumo/scenarios/arterial/routes.rou.xml"/>
    <trip-attributes value="departLane=&quot;best&quot; departSpeed=&quot;max&quot;"/>
    <seed value="12"/>
    <end value="900.0"/>
    <period value="2.4"/>
</configuration>
-->

<routes xmlns:xsi="http://www.w3.org/2001/XMLSchema-instance" xsi:noNamespaceSchemaLocation="http://sumo.dlr.de/xsd/routes_file.xsd">
    <trip id="0" depart="0.00" from="C1D1" to="D1E1" departLane="best" departSpeed="max"/>
    <trip id="1" depart="2.40" from="D1E1" to="B0A0" departLane="best" departSpeed="max"/>
    <trip id="2" depart="4.80" from="A0A1" to="C0C1" departLane="best" departSpeed="max"/>
    <trip id="3" depart="7.20" from="B1B0" to="E1D1" departLane="best" departSpeed="max"/>
    <trip id="4" depart="9.60" from="E0D0" to="D1C1" departLane="best" departSpeed="max"/>
    <trip id="5" depart="12.00" from="D0D1" to="D1E1" departLane="best" departSpeed="max"/>
    <trip id="6" depart="14.40" from="B0A0" to="C1C0" departLane="best" departSpeed="max"/>
    <trip id="7" depart="16.80" from="B0B1" to="F0E0" departLane="best" departSpeed="max"/>
    <trip id="8" depart="19.20" from="A0B0" to="E1E0" departLane="best" departSpeed="max"/>
    <trip id="9" depart="21.60" from="A1A0" to="D1E1" departLane="best" departSpeed="max"/>
    <trip id="10" depart="24.00" from="C0B0" to="C0D0" departLane="best" departSpeed="max"/>
    <trip id="11" depart="26.40" from="E1E0" to="A0A1" departLane="best" departSpeed="max"/>
    <trip id="12" depart="28.80" from="A0B0" to="F0F1" departLane="best" departSpeed="max"/>
    <trip id="13" depart="31.20" from="D0C0" to="A1A0" departLane="best" departSpeed="max"/>
    <trip id="14" depart="33.60" from="F1F0" to="F1E1" departLane="best" departSpeed="max"/>
    <trip id="15" depart="36.00" from="A1B1" to="C1B1" departLane="best" departSpeed="max"/>
    <trip id="16" depart="38.40" from="B0A0" to="C0B0" departLane="best" departSpeed="max"/>
    <trip id="17" depart="40.80" from="D1C1" to="B0B1" departLane="best" departSpeed="max"/>
    <trip id="18" depart="43.20" from="E0D0" to="A0B0" departLane="best" departSpeed="max"/>
    <trip id="19" depart="45.60" from="B0B1" to="E1E0" departLane="best" departSpeed="max"/>
    <trip id="20" depart="48.00" from="C0D0" to="C1B1" departLane="best" departSpeed="max"/>
    <trip id="21" depart="50.40" from="D1C1" to="C1D1" departLane="best" departSpeed="max"/>
    <trip id="22" depart="52.80" from="C0D0" to="A0A1" departLane="best" departSpeed="max"/>
    <trip id="23" depart="55.20" from="E0E1" to="F1E1" departLane="best" departSpeed="max"/>
    <trip id="24" depart="57.60" from="F1F0" to="D1E1" departLane="best" departSpeed="max"/>
    <trip id="25" depart="60.00" from="C0C1" to="C0C1" departLane="best" departSpeed="max"/>
    <trip id="26" depart="62.40" from="E0D0" to="D1E1" departLane="best" departSpeed="max"/>
    <trip id="27" depart="64.80" from="A1B1" to="B1A1" departLane="best" departSpeed="max"/>
    <trip id="28" depart="67.20" from="C0C1" to="D0C0" departLane="best" departSpeed="max"/>
    <trip id="29" depart="69.60" from="E1D1" to="D0C0" departLane="best" departSpeed="max"/>
    <trip id="30" depart="72.00" from="A0A1" to="E1E0" departLane="best" departSpeed="max"/>
    <trip id="31" depart="74.40" from="C1B1" to="D0C0" departLane="best" departSpeed="max"/>
    <trip id="32" depart="76.80" from="B1A1" to="C1B1" departLane="best" departSpeed="max"/>
    <trip id="33" depart="79.20" from="C0D0" to="E0F0" departLane="best" departSpeed="max"/>
    <trip id="34" depart="81.60" from="A1B1" to="D0D1" departLane="best" departSpeed="max"/>
    <trip id="35" depart="84.00" from="B0B1" to="E0D0" departLane="best" departSpeed="max"/>
    <trip id="36" depart="86.40" from="A0B0" to="B1B0" departLane="best" departSpeed="max"/>
    <trip id="37" depart="88.80" from="C0C1" to="D1D0" departLane="best" departSpeed="max"/>
    <trip id="38" depart="91.20" from="A0B0" to="C1C0" departLane="best" departSpeed="max"/>
    <trip id="39" depart="93.60" from="B0C0" to="B1C1" departLane="best" departSpeed="max"/>
    <trip id="40" depart="96.00" from="C1D1" to="F1E1" departLane="best" departSpeed="max"/>
    <trip id="41" depart="98.40" from="C1D1" to="F1E1" departLane="best" departSpeed="max"/>
    <trip id="42" depart="100.80" from="B0B1" to="F0F1" departLane="best" departSpeed="max"/>
    <trip id="43" depart="103.20" from="C0C1" to="B0C0" departLane="best" departSpeed="max"/>
    <trip id="44" depart="105.60" from="E0E1" to="F0F1" departLane="best" departSpeed="max"/>
    <trip id="45" depart="108.00" from="A0A1" to="B1B0" departLane="best" departSpeed="max"/>
    <trip id="46" depart="110.40" from="E0F0" to="C0B0" departLane="best" departSpeed="max"/>
    <trip id="47" depart="112.80" from="B1A1" to="A0A1" departLane="best" departSpeed="max"/>
    <trip id="48" depart="115.20" from="A0B0" to="D1C1" departLane="best" departSpeed="max"/>
    <trip id="49" depart="117.60" from="F1F0" to="F1F0" departLane="best" departSpeed="max"/>
    <trip id="50" depart="120.00" from="D0C0" to="A0A1" departLane="best" departSpeed="max"/>
    <trip id="51" depart="122.40" from="C0B0" to="E1D1" departLane="best" departSpeed="max"/>
    <trip id="52" depart="124.80" from="E1E0" to="D1D0" departLane="best" departSpeed="max"/>
    <trip id="53" depart="127.20" from="B1A1" to="D0C0" departLane="best" departSpeed="max"/>
    <trip id="54" depart="129.60" from="C1D1" to="D1D0" departLane="best" departSpeed="max"/>
    <trip id="55" depart="132.00" from="B1B0" to="F1E1" departLane="best" departSpeed="max"/>
    <trip id="56" depart="134.40" from="F0E0" to="B0B1" departLane="best" departSpeed="max"/>
    <trip id="57" depart="136.80" from="B1C1" to="E1F1" departLane="best" departSpeed="max"/>
    <trip id="58" depart="139.20" from="B1B0" to="F1E1" departLane="best" departSpeed="max"/>
    <trip id="59" depart="141.60" from="D0C0" to="E0D0" departLane="best" departSpeed="max"/>
    <trip id="60" depart="144.00" from="E0D0" to="B0C0" departLane="best" departSpeed="max"/>
    <trip id="61" depart="146.40" from="B1C1" to="B1B0" departLane="best" departSpeed="max"/>
    <trip id="62" depart="148.80" from="D1E1" to="E0D0" departLane="best" departSpeed="max"/>
    <trip id="63" depart="151.20" from="B0A0" to="F0E0" departLane="best" departSpeed="max"/>
    <trip id="64" depart="153.60" from="C1B1" to="B1A1" departLane="best" departSpeed="max"/>
    <trip id="65" depart="156.00" from="C1B1" to="F1F0" departLane="best" departSpeed="max"/>
    <trip id="66" depart="158.40" from="D0D1" to="D1C1" departLane="best" departSpeed="max"/>
    <trip id="67" depart="160.80" from="F0F1" to="F1E1" departLane="best" departSpeed="max"/>
    <trip id="68" depart="163.20" from="E0F0" to="C1B1" departLane="best" departSpeed="max"/>
    <trip id="69" depart="165.60" from="D0E0" to="F0E0" departLane="best" departSpeed="max"/>
    <trip id="70" depart="168.00" from="E1D1" to="D0E0" departLane="best" departSpeed="max"/>
    <trip id="71" depart="170.40" from="C0C1" to="C0C1" departLane="best" departSpeed="max"/>
    <trip id="72" depart="172.80" from="E0E1" to="D0E0" departLane="best" departSpeed="max"/>
    <trip id="73" depart="175.20" from="A0A1" to="E0D0" departLane="best" departSpeed="max"/>
    <trip id="74" depart="177.60" from="F0E0" to="E1D1" departLane="best" departSpeed="max"/>
    <trip id="75" depart="180.00" from="F0E0" to="F0F1" departLane="best" departSpeed="max"/>
    <trip id="76" depart="182.40" from="D0D1" to="E1D1" departLane="best" departSpeed="max"/>
    <trip id="77" depart="184.80" from="C0D0" to="A1B1" departLane="best" departSpeed="max"/>
    <trip id="78" depart="187.20" from="C0C1" to="B1C1" departLane="best" departSpeed="max"/>
    <trip id="79" depart="189.60" from="F0F1" to="E0D0" departLane="best" departSpeed="max"/>
    <trip id="80" depart="192.00" from="D0D1" to="D1C1" departLane="best" departSpeed="max"/>
    <trip id="81" depart="194.40" from="A1B1" to="D0D1" departLane="best" departSpeed="max"/>
    <trip id="82" depart="196.80" from="E0D0" to="C0D0" departLane="best" departSpeed="max"/>
    <trip id="83" depart="199.20" from="B1A1" to="C1B1" departLane="best" departSpeed="max"/>
    <trip id="84" depart="201.60" from="C0B0" to="D1E1" departLane="best" departSpeed="max"/>
    <trip id="85" depart="204.00" from="B0A0" to="A1A0" departLane="best" departSpeed="max"/>
    <trip id="86" depart="206.40" from="B1C1" to="E0D0" departLane="best" departSpeed="max"/>
    <trip id="87" depart="208.80" from="E0F0" to="D1E1" departLane="best" departSpeed="max"/>
    <trip id="88" depart="211.20" from="F0F1" to="C0C1" departLane="best" departSpeed="max"/>
    <trip id="89" depart="213.60" from="A0A1" to="C1D1" departLane="best" departSpeed="max"/>
    <trip id="90" depart="216.00" from="C1C0" to="B0B1" departLane="best" departSpeed="max"/>
    <trip id="91" depart="218.40" from="D1E1" to="C0B0" departLane="best" departSpeed="max"/>
    <trip id="92" depart="220.80" from="B1A1" to="C0B0" departLane="best" departSpeed="max"/>
    <trip id="93" depart="223.20" from="F1E1" to="A0A1" departLane="best" departSpeed="max"/>
    <trip id="94" depart="225.60" from="C0C1" to="B1B0" departLane="best" departSpeed="max"/>
    <trip id="95" depart="228.00" from="B0C0" to="C1B1" departLane="best" departSpeed="max"/>
    <trip id="96" depart="230.40" from="B1A1" to="F0F1" departLane="best" departSpeed="max"/>
    <trip id="97" depart="232.80" from="D0C0" to="E0D0" departLane="best" departSpeed="max"/>
    <trip id="98" depart="235.20" from="B0B1" to="C1C0" departLane="best" departSpeed="max"/>
    <trip id="99" depart="237.60" from="D1C1" to="E1E0" departLane="best" departSpeed="max"/>
    <trip id="100" depart="240.00" from="B1A1" to="C1C0" departLane="best" departSpeed="max"/>
    <trip id="101" depart="242.40" from="E1F1" to="E1E0" departLane="best" departSpeed="max"/>
    <trip id="102" depart="244.80" from="B1A1" to="D0D1" departLane="best" departSpeed="max"/>
    <trip id="103" depart="247.20" from="E0F0" to="C0D0" departLane="best" departSpeed="max"/>
    <trip id="104" depart="249.60" from="D1E1" to="D1E1" departLane="best" departSpeed="max"/>
    <trip id="105" depart="252.00" from="F1F0" to="D0D1" departLane="best" departSpeed="max"/>
    <trip id="106" depart="254.40" from="D1E1" to="C0C1" departLane="best" departSpeed="max"/>
    <trip id="107" depart="256.80" from="E0E1" to="C0B0" departLane="best" departSpeed="max"/>
    <trip id="108" depart="259.20" from="C1D1" to="C0C1" departLane="best" departSpeed="max"/>
    <trip id="109" depart="261.60" from="B1C1" to="B0A0" departLane="best" departSpeed="max"/>
    <trip id="110" depart="264.00" from="B1A1" to="D0D1" departLane="best" departSpeed="max"/>
    <trip id="111" depart="266.40" from="B1B0" to="A0B0" departLane="best" departSpeed="max"/>
    <trip id="112" depart="268.80" from="E1D1" to="B1C1" departLane="best" departSpeed="max"/>
    <trip id="113" depart="271.20" from="F0F1" to="D1C1" departLane="best" departSpeed="max"/>
    <trip id="114" depart="273.60" from="C0D0" to="E1F1" departLane="best" departSpeed="max"/>
    <trip id="115" depart="276.00" from="F0E0" to="C0B0" departLane="best" departSpeed="max"/>
    <trip id="116" depart="278.40" from="B0A0" to="D1D0" departLane="best" departSpeed="max"/>
    <trip id="117" depart="280.80" from="E1E0" to="D1C1" departLane="best" departSpeed="max"/>
    <trip id="118" depart="283.20" from="E1D1" to="C1B1" departLane="best" departSpeed="max"/>
    <trip id="119" depart="285.60" from="D1C1" to="B1B0" departLane="best" departSpeed="max"/>
    <trip id="120" depart="288.00" from="C1B1" to="C0D0" departLane="best" departSpeed="max"/>
    <trip id="121" depart="290.40" from="C0D0" to="C0D0" departLane="best" departSpeed="max"/>
    <trip id="122" depart="292.80" from="E1D1" to="B0B1" departLane="best" departSpeed="max"/>
    <trip id="123" depart="295.20" from="B0C0" to="B1B0" departLane="best" departSpeed="max"/>
    <trip id="124" depart="297.60" from="F1F0" to="D0C0" departLane="best" departSpeed="max"/>
    <trip id="125" depart="300.00" from="A0B0" to="E1E0" departLane="best" departSpeed="max"/>
    <trip id="126" depart="302.40" from="E1F1" to="E1E0" departLane="best" departSpeed="max"/>
    <trip id="127" depart="304.80" from="C0C1" to="E0E1" departLane="best" departSpeed="max"/>
    <trip id="128" depart="307.20" from="B1C1" to="B0A0" departLane="best" departSpeed="max"/>
    <trip id="129" depart="309.60" from="E1F1" to="E1E0" departLane="best" departSpeed="max"/>
    <trip id="130" depart="312.00" from="B0C0" to="F0E0" departLane="best" departSpeed="max"/>
    <trip id="131" depart="314.40" from="A0A1" to="B1C1" departLane="best" departSpeed="max"/>
    <trip id="132" depart="316.80" from="A0A1" to="B0B1" departLane="best" departSpeed="max"/>
    <trip id="133" depart="319.20" from="B0B1" to="E0D0" departLane="best" departSpeed="max"/>
    <trip id="134" depart="321.60" from="B1C1" to="B0C0" departLane="best" departSpeed="max"/>
    <trip id="135" depart="324.00" from="B0B1" to="B1C1" departLane="best" departSpeed="max"/>
    <trip id="136" depart="326.40" from="E1F1" to="D1C1" departLane="best" departSpeed="max"/>
    <trip id="137" depart="328.80" from="A1B1" to="D1E1" departLane="best" departSpeed="max"/>
    <trip id="138" depart="331.20" from="D0D1" to="C1C0" departLane="best" departSpeed="max"/>
    <trip id="139" depart="333.60" from="D0C0" to="D1D0" departLane="best" departSpeed="max"/>
    <trip id="140" depart="336.00" from="E1D1" to="D0C0" departLane="best" departSpeed="max"/>
    <trip id="141" depart="338.40" from="D1D0" to="C1C0" departLane="best" departSpeed="max"/>
    <trip id="142" depart="340.80" from="D1D0" to="C0D0" departLane="best" departSpeed="max"/>
    <trip id="143" depart="343.20" from="C1B1" to="D0C0" departLane="best" departSpeed="max"/>
    <trip id="144" depart="345.60" from="E0D0" to="B1B0" departLane="best" departSpeed="max"/>
    <trip id="145" depart="348.00" from="F0F1" to="C1D1" departLane="best" departSpeed="max"/>
    <trip id="146" depart="350.40" from="E1F1" to="E0D0" departLane="best" departSpeed="max"/>
    <trip id="147" depart="352.80" from="F1E1" to="D1E1" departLane="best" departSpeed="max"/>
    <trip id="148" depart="355.20" from="C1B1" to="C0D0" departLane="best" departSpeed="max"/>
    <trip id="149" depart="357.60" from="D1C1" to="E0F0" departLane="best" departSpeed="max"/>
    <trip id="150" depart="360.00" from="E1E0" to="B0A0" departLane="best" departSpeed="max"/>
    <trip id="151" depart="362.40" from="A0B0" to="A1B1" departLane="best" departSpeed="max"/>
    <trip id="152" depart="364.80" from="A1A0" to="A0B0" departLane="best" departSpeed="max"/>
    <trip id="153" depart="367.20" from="A0A1" to="B1A1" departLane="best" departSpeed="max"/>
    <trip id="154" depart="369.60" from="A1B1" to="D1E1" departLane="best" departSpeed="max"/>
    <trip id="155" depart="372.00" from="D1C1" to="F1E1" departLane="best" departSpeed="max"/>
    <trip id="156" depart="374.40" from="F1E1" to="E0E1" departLane="best" departSpeed="max"/>
    <trip id="157" depart="376.80" from="F1E1" to="A0A1" departLane="best" departSpeed="max"/>
    <trip id="158" depart="379.20" from="B1A1" to="F0F1" departLane="best" departSpeed="max"/>
    <trip id="159" depart="381.60" from="C1D1" to="B0C0" departLane="best" departSpeed="max"/>
    <trip id="160" depart="384.00" from="E0F0" to="C1B1" departLane="best" departSpeed="max"/>
    <trip id="161" depart="386.40" from="D0D1" to="C0B0" departLane="best" departSpeed="max"/>
    <trip id="162" depart="388.80" from="B1A1" to="A1A0" departLane="best" departSpeed="max"/>
    <trip id="163" depart="391.20" from="D1C1" to="F1E1" departLane="best" departSpeed="max"/>
    <trip id="164" depart="393.60" from="F1F0" to="E0F0" departLane="best" departSpeed="max"/>
    <trip id="165" depart="396.00" from="F0F1" to="C0C1" departLane="best" departSpeed="max"/>
    <trip id="166" depart="398.40" from="B1C1" to="F0F1" departLane="best" departSpeed="max"/>
    <trip id="167" depart="400.80" from="D1C1" to="D1E1" departLane="best" departSpeed="max"/>
    <trip id="168" depart="403.20" from="A0A1" to="B1A1" departLane="best" departSpeed="max"/>
    <trip id="169" depart="405.60" from="C1D1" to="E0E1" departLane="best" departSpeed="max"/>
    <trip id="170" depart="408.00" from="E1E0" to="E0F0" departLane="best" departSpeed="max"/>
    <trip id="171" depart="410.40" from="C0B0" to="C0D0" departLane="best" departSpeed="max"/>
    <trip id="172" depart="412.80" from="E1F1" to="F1F0" departLane="best" departSpeed="max"/>
    <trip id="173" depart="415.20" from="C1D1" to="B0C0" departLane="best" departSpeed="max"/>
    <trip id="174" depart="417.60" from="D1C1" to="D0D1" departLane="best" departSpeed="max"/>
    <trip id="175" depart="420.00" from="C0C1" to="B1A1" departLane="best" departSpeed="max"/>
    <trip id="176" depart="422.40" from="C0D0" to="D1C1" departLane="best" departSpeed="max"/>
    <trip id="177" depart="424.80" from="B0A0" to="D0D1" departLane="best" departSpeed="max"/>
    <trip id="178" depart="427.20" from="F1E1" to="E0E1" departLane="best" departSpeed="max"/>
    <trip id="179" depart="429.60" from="B1B0" to="C1B1" departLane="best" departSpeed="max"/>
    <trip id="180" depart="432.00" from="A1B1" to="E0E1" departLane="best" departSpeed="max"/>
    <trip id="181" depart="434.40" from="D1D0" to="B0B1" departLane="best" departSpeed="max"/>
    <trip id="182" depart="436.80" from="D0D1" to="D1C1" departLane="best" departSpeed="max"/>
    <trip id="183" depart="439.20" from="D0E0" to="C0D0" departLane="best" departSpeed="max"/>
    <trip id="184" depart="441.60" from="B1C1" to="C0C1" departLane="best" departSpeed="max"/>
    <trip id="185" depart="444.00" from="F1F0" to="C0B0" departLane="best" departSpeed="max"/>
    <trip id="186" depart="446.40" from="D0C0" to="C1C0" departLane="best" departSpeed="max"/>
    <trip id="187" depart="448.80" from="B0B1" to="C0D0" departLane="best" departSpeed="max"/>
    <trip id="188" depart="451.20" from="B0C0" to="C0B0" departLane="best" departSpeed="max"/>
    <trip id="189" depart="453.60" from="C0C1" to="C0C1" departLane="best" departSpeed="max"/>
    <trip id="190" depart="456.00" from="F1E1" to="B1C1" departLane="best" departSpeed="max"/>
    <trip id="191" depart="458.40" from="C0B0" to="D1E1" departLane="best" departSpeed="max"/>
    <trip id="192" depart="460.80" from="C0D0" to="D0C0" departLane="best" departSpeed="max"/>
    <trip id="193" depart="463.20" from="D1D0" to="A1A0" departLane="best" departSpeed="max"/>
    <trip id="194" depart="465.60" from="D1E1" to="A1B1" departLane="best" departSpeed="max"/>
    <trip id="195" depart="468.00" from="B1B0" to="E1D1" departLane="best" departSpeed="max"/>
    <trip id="196" depart="470.40" from="F1F0" to="D1E1" departLane="best" departSpeed="max"/>
    <trip id="197" depart="472.80" from="B0B1" to="C1C0" departLane="best" departSpeed="max"/>
    <trip id="198" depart="475.20" from="B1C1" to="E1E0" departLane="best" departSpeed="max"/>
    <trip id="199" depart="477.60" from="B1A1" to="B0C0" departLane="best" departSpeed="max"/>
    <trip id="200" depart="480.00" from="D1D0" to="D1D0" departLane="best" departSpeed="max"/>
    <trip id="201" depart="482.40" from="D0E0" to="C1D1" departLane="best" departSpeed="max"/>
    <trip id="202" depart="484.80" from="F1E1" to="C1C0" departLane="best" departSpeed="max"/>
    <trip id="203" depart="487.20" from="F0F1" to="C0D0" departLane="best" departSpeed="max"/>
    <trip id="204" depart="489.60" from="C1C0" to="C0C1" departLane="best" departSpeed="max"/>
    <trip id="205" depart="492.00" from="E0D0" to="E0F0" departLane="best" departSpeed="max"/>
    <trip id="206" depart="494.40" from="B1A1" to="D0C0" departLane="best" departSpeed="max"/>
    <trip id="207" depart="496.80" from="E0E1" to="D0C0" departLane="best" departSpeed="max"/>
    <trip id="208" depart="499.20" from="D1E1" to="D1C1" departLane="best" departSpeed="max"/>
    <trip id="209" depart="501.60" from="E0D0" to="C0C1" departLane="best" departSpeed="max"/>
    <trip id="210" depart="504.00" from="B1C1" to="A0A1" departLane="best" departSpeed="max"/>
    <trip id="211" depart="506.40" from="F0E0" to="E1D1" departLane="best" departSpeed="max"/>
    <trip id="212" depart="508.80" from="C0D0" to="F1E1" departLane="best" departSpeed="max"/>
    <trip id="213" depart="511.20" from="F0E0" to="B0A0" departLane="best" departSpeed="max"/>
    <trip id="214" depart="513.60" from="E1E0" to="C1B1" departLane="best" departSpeed="max"/>
    <trip id="215" depart="516.00" from="C0B0" to="B1B0" departLane="best" departSpeed="max"/>
    <trip id="216" depart="518.40" from="C1B1" to="A0B0" departLane="best" departSpeed="max"/>
    <trip id="217" depart="520.80" from="A0B0" to="A1B1" departLane="best" departSpeed="max"/>
    <trip id="218" depart="523.20" from="B1C1" to="B0B1" departLane="best" departSpeed="max"/>
    <trip id="219" depart="525.60" from="A1B1" to="E1E0" departLane="best" departSpeed="max"/>
    <trip id="220" depart="528.00" from="C0D0" to="C1D1" departLane="best" departSpeed="max"/>
    <trip id="221" depart="530.40" from="D1C1" to="F0F1" departLane="best" departSpeed="max"/>
    <trip id="222" depart="532.80" from="B0A0" to="B1A1" departLane="best" departSpeed="max"/>
    <trip id="223" depart="535.20" from="E1F1" to="F0F1" departLane="best" departSpeed="max"/>
    <trip id="224" depart="537.60" from="F0F1" to="D0C0" departLane="best" departSpeed="max"/>
    <trip id="225" depart="540.00" from="C0C1" to="B0C0" departLane="best" departSpeed="max"/>
    <trip id="226" depart="542.40" from="F0F1" to="E0F0" departLane="best" departSpeed="max"/>
    <trip id="227" depart="544.80" from="D0D1" to="E1D1" departLane="best" departSpeed="max"/>
    <trip id="228" depart="547.20" from="B1B0" to="D0D1" departLane="best" departSpeed="max"/>
    <trip id="229" depart="549.60" from="F0F1" to="A1B1" departLane="best" departSpeed="max"/>
    <trip id="230" depart="552.00" from="D1C1" to="B0B1" departLane="best" departSpeed="max"/>
    <trip id="231" depart="554.40" from="E1E0" to="E1E0" departLane="best" departSpeed="max"/>
    <trip id="232" depart="556.80" from="D1D0" to="C1B1" departLane="best" departSpeed="max"/>
    <trip id="233" depart="559.20" from="A0A1" to="C1D1" departLane="best" departSpeed="max"/>
    <trip id="234" depart="561.60" from="C0C1" to="C0D0" departLane="best" departSpeed="max"/>
    <trip id="235" depart="564.00" from="A1A0" to="F0F1" departLane="best" departSpeed="max"/>
    <trip id="236" depart="566.40" from="D0C0" to="D0D1" departLane="best" departSpeed="max"/>
    <trip id="237" depart="568.80" from="E1E0" to="F0E0" departLane="best" departSpeed="max"/>
    <trip id="238" depart="571.20" from="D0D1" to="D0D1" departLane="best" departSpeed="max"/>
    <trip id="239" depart="573.60" from="E1F1" to="C0C1" departLane="best" departSpeed="max"/>
    <trip id="240" depart="576.00" from="F0E0" to="A0A1" departLane="best" departSpeed="max"/>
    <trip id="241" depart="578.40" from="E1D1" to="D0C0" departLane="best" departSpeed="max"/>
    <trip id="242" depart="580.80" from="D1C1" to="F1F0" departLane="best" departSpeed="max"/>
    <trip id="243" depart="583.20" from="B1A1" to="C1B1" departLane="best" departSpeed="max"/>
    <trip id="244" depart="585.60" from="E1D1" to="E0E1" departLane="best" departSpeed="max"/>
    <trip id="245" depart="588.00" from="D0C0" to="E0F0" departLane="best" departSpeed="max"/>
    <trip id="246" depart="590.40" from="D1E1" to="E1F1" departLane="best" departSpeed="max"/>
    <trip id="247" depart="592.80" from="D1D0" to="C0C1" departLane="best" departSpeed="max"/>
    <trip id="248" depart="595.20" from="B1C1" to="A1A0" departLane="best" departSpeed="max"/>
    <trip id="249" depart="597.60" from="A1B1" to="A0B0" departLane="best" departSpeed="max"/>
    <trip id="250" depart="600.00" from="F1F0" to="B0A0" departLane="best" departSpeed="max"/>
    <trip id="251" depart="602.40" from="D1C1" to="B0A0" departLane="best" departSpeed="max"/>
    <trip id="252" depart="604.80" from="F1E1" to="D0D1" departLane="best" departSpeed="max"/>
    <trip id="253" depart="607.20" from="B0B1" to="E1E0" departLane="best" departSpeed="max"/>
    <trip id="254" depart="609.60" from="E1F1" to="F1F0" departLane="best" departSpeed="max"/>
    <trip id="255" depart="612.00" from="B1A1" to="C0D0" departLane="best" departSpeed="max"/>
    <trip id="256" depart="614.40" from="D1E1" to="B1C1" departLane="best" departSpeed="max"/>
    <trip id="257" depart="616.80" from="D0E0" to="E0D0" departLane="best" departSpeed="max"/>
    <trip id="258" depart="619.20" from="E0F0" to="E1E0" departLane="best" departSpeed="max"/>
    <trip id="259" depart="621.60" from="E0F0" to="B1C1" departLane="best" departSpeed="max"/>
    <trip id="260" depart="624.00" from="E0F0" to="C1B1" departLane="best" departSpeed="max"/>
    <trip id="261" depart="626.40" from="B0B1" to="A0A1" departLane="best" departSpeed="max"/>
    <trip id="262" depart="628.80" from="D1C1" to="C0C1" departLane="best" departSpeed="max"/>
    <trip id="263" depart="631.20" from="A1B1" to="C1D1" departLane="best" departSpeed="max"/>
    <trip id="264" depart="633.60" from="C1B1" to="C0B0" departLane="best" departSpeed="max"/>
    <trip id="265" depart="636.00" from="D0E0" to="D0D1" departLane="best" departSpeed="max"/>
    <trip id="266" depart="638.40" from="D0C0" to="F1F0" departLane="best" departSpeed="max"/>
    <trip id="267" depart="640.80" from="F0E0" to="B1C1" departLane="best" departSpeed="max"/>
    <trip id="268" depart="643.20" from="E1F1" to="C0B0" departLane="best" departSpeed="max"/>
    <trip id="269" depart="645.60" from="F0F1" to="A0B0" departLane="best" departSpeed="max"/>
    <trip id="270" depart="648.00" from="C0B0" to="F0F1" departLane="best" departSpeed="max"/>
    <trip id="271" depart="650.40" from="D1E1" to="E0D0" departLane="best" departSpeed="max"/>
    <trip id="272" depart="652.80" from="B0C0" to="A1B1" departLane="best" departSpeed="max"/>
    <trip id="273" depart="655.20" from="F1E1" to="A1A0" departLane="best" departSpeed="max"/>
    <trip id="274" depart="657.60" from="B0B1" to="C1B1" departLane="best" departSpeed="max"/>
    <trip id="275" depart="660.00" from="E1E0" to="D1E1" departLane="best" departSpeed="max"/>
    <trip id="276" depart="662.40" from="F1F0" to="E0F0" departLane="best" departSpeed="max"/>
    <trip id="277" depart="664.80" from="C1B1" to="F0F1" departLane="best" departSpeed="max"/>
    <trip id="278" depart="667.20" from="C0B0" to="A0B0" departLane="best" departSpeed="max"/>
    <trip id="279" depart="669.60" from="F1E1" to="F0E0" departLane="best" departSpeed="max"/>
    <trip id="280" depart="672.00" from="D1E1" to="C1D1" departLane="best" departSpeed="max"/>
    <trip id="281" depart="674.40" from="B0C0" to="B1A1" departLane="best" departSpeed="max"/>
    <trip id="282" depart="676.80" from="A1A0" to="A1B1" departLane="best" departSpeed="max"/>
    <trip id="283" depart="679.20" from="C1D1" to="F0E0" departLane="best" departSpeed="max"/>
    <trip id="284" depart="681.60" from="F0F1" to="D0C0" departLane="best" departSpeed="max"/>
    <trip id="285" depart="684.00" from="D1E1" to="C1C0" departLane="best" departSpeed="max"/>
    <trip id="286" depart="686.40" from="E0F0" to="E0D0" departLane="best" departSpeed="max"/>
    <trip id="287" depart="688.80" from="F1F0" to="E1F1" departLane="best" departSpeed="max"/>
    <trip id="288" depart="691.20" from="D1E1" to="D0E0" departLane="best" departSpeed="max"/>
    <trip id="289" depart="693.60" from="B0B1" to="C1D1" departLane="best" departSpeed="max"/>
    <trip id="290" depart="696.00" from="C1C0" to="B0A0" departLane="best" departSpeed="max"/>
    <trip id="291" depart="698.40" from="B0C0" to="C1B1" departLane="best" departSpeed="max"/>
    <trip id="292" depart="700.80" from="B0B1" to="D1C1" departLane="best" departSpeed="max"/>
    <trip id="293" depart="703.20" from="C0B0" to="F1F0" departLane="best" departSpeed="max"/>
    <trip id="294" depart="705.60" from="D1E1" to="D0C0" departLane="best" departSpeed="max"/>
    <trip id="295" depart="708.00" from="C1B1" to="C0D0" departLane="best" departSpeed="max"/>
    <trip id="296" depart="710.40" from="B0C0" to="F1E1" departLane="best" departSpeed="max"/>
    <trip id="297" depart="712.80" from="F0F1" to="D1D0" departLane="best" departSpeed="max"/>
    <trip id="298" depart="715.20" from="D1D0" to="B0A0" departLane="best" departSpeed="max"/>
    <trip id="299" depart="717.60" from="D0D1" to="B0B1" departLane="best" departSpeed="max"/>
    <trip id="300" depart="720.00" from="C0B0" to="D0E0" departLane="best" departSpeed="max"/>
    <trip id="301" depart="722.40" from="B0B1" to="B1A1" departLane="best" departSpeed="max"/>
    <trip id="302" depart="724.80" from="E0E1" to="C1D1" departLane="best" departSpeed="max"/>
    <trip id="303" depart="727.20" from="F0E0" to="B0B1" departLane="best" departSpeed="max"/>
    <trip id="304" depart="729.60" from="A1A0" to="F1E1" departLane="best" departSpeed="max"/>
    <trip id="305" depart="732.00" from="D1C1" to="E0D0" departLane="best" departSpeed="max"/>
    <trip id="306" depart="734.40" from="D0D1" to="B0A0" departLane="best" departSpeed="max"/>
    <trip id="307" depart="736.80" from="F1F0" to="C1D1" departLane="best" departSpeed="max"/>
    <trip id="308" depart="739.20" from="F0F1" to="B0A0" departLane="best" departSpeed="max"/>
    <trip id="309" depart="741.60" from="B1B0" to="D0D1" departLane="best" departSpeed="max"/>
    <trip id="310" depart="744.00" from="B1A1" to="E1F1" departLane="best" departSpeed="max"/>