<?xml version="1.0" encoding="UTF-8"?>

<!-- generated on 2025-08-14 10:46:00.165028 by randomTrips.py v1_24_0+0000-b72eb3fabc8
<configuration>
    <net-file value="sumo/scenarios/grid_3x3/net.net.xml"/>
    <route-file value="sumo/scenarios/grid_3x3/routes.rou.xml"/>
    <trip-attributes value="departLane=&quot;best&quot; departSpeed=&quot;max&quot;"/>
    <seed value="11"/>
    <end value="600.0"/>
    <period value="2.6"/>
</configuration>
-->

<!-- generated on 2025-08-14 10:46:00 by Eclipse SUMO duarouter Version 1.24.0
<duarouterConfiguration xmlns:xsi="http://www.w3.org/2001/XMLSchema-instance" xsi:noNamespaceSchemaLocation="http://sumo.dlr.de/xsd/duarouterConfiguration.xsd">

    <input>
        <net-file value="sumo/scenarios/grid_3x3/net.net.xml"/>
        <route-files value="trips.trips.xml"/>
    </input>

    <output>
        <output-file value="sumo/scenarios/grid_3x3/routes.rou.xml"/>
        <alternatives-output value="NUL"/>
    </output>

    <time>
        <begin value="0.0"/>
        <end value="600.0"/>
    </time>

    <report>
        <no-warnings value="true"/>
        <ignore-errors value="true"/>
        <no-step-log value="true"/>
    </report>

</duarouterConfiguration>
-->

<routes xmlns:xsi="http://www.w3.org/2001/XMLSchema-instance" xsi:noNamespaceSchemaLocation="http://sumo.dlr.de/xsd/routes_file.xsd">
    <vehicle id="0" depart="0.00" departLane="best" departSpeed="max">
        <route edges="B1A1 A1B1 B1C1"/>
    </vehicle>
    <vehicle id="1" depart="2.60" departLane="best" departSpeed="max">
        <route edges="C2B2 B2B1 B1B0"/>
    </vehicle>
    <vehicle id="2" depart="5.20" departLane="best" departSpeed="max">
        <route edges="B1B2 B2A2"/>
    </vehicle>
    <vehicle id="3" depart="7.80" departLane="best" departSpeed="max">
        <route edges="A1B1 B1B2"/>
    </vehicle>
    <vehicle id="4" depart="10.40" departLane="best" departSpeed="max">
        <route edges="B2B1 B1C1 C1B1"/>
    </vehicle>
    <vehicle id="5" depart="13.00" departLane="best" departSpeed="max">
        <route edges="A1A0 A0B0 B0A0"/>
    </vehicle>
    <vehicle id="6" depart="15.60" departLane="best" departSpeed="max">
        <route edges="A1A0 A0B0 B0C0 C0C1 C1B1"/>
    </vehicle>
    <vehicle id="7" depart="18.20" departLane="best" departSpeed="max">
        <route edges="B2C2 C2C1 C1B1 B1A1 A1A0 A0B0"/>
    </vehicle>
    <vehicle id="8" depart="20.80" departLane="best" departSpeed="max">
        <route edges="C2C1"/>
    </vehicle>
    <vehicle id="9" depart="23.40" departLane="best" departSpeed="max">
        <route edges="B2B1 B1B2 B2A2"/>
    </vehicle>
    <vehicle id="10" depart="26.00" departLane="best" departSpeed="max">
        <route edges="A1A2 A2B2 B2B1 B1B0 B0A0 A0A1"/>
    </vehicle>
    <vehicle id="11" depart="28.60" departLane="best" departSpeed="max">
        <route edges="B1B2 B2A2 A2A1 A1A0 A0B0"/>
    </vehicle>
    <vehicle id="12" depart="31.20" departLane="best" departSpeed="max">
        <route edges="A1B1 B1B2 B2A2 A2A1"/>
    </vehicle>
    <vehicle id="13" depart="33.80" departLane="best" departSpeed="max">
        <route edges="A0A1 A1B1 B1B0"/>
    </vehicle>
    <vehicle id="14" depart="36.40" departLane="best" departSpeed="max">
        <route edges="B1A1 A1B1 B1C1 C1C0"/>
    </vehicle>
    <vehicle id="15" depart="39.00" departLane="best" departSpeed="max">
        <route edges="B1B2 B2B1"/>
    </vehicle>
    <vehicle id="16" depart="41.60" departLane="best" departSpeed="max">
        <route edges="B1B0 B0B1 B1B2 B2B1"/>
    </vehicle>
    <vehicle id="17" depart="44.20" departLane="best" departSpeed="max">
        <route edges="B1A1 A1A2 A2B2"/>
    </vehicle>
    <vehicle id="18" depart="46.80" departLane="best" departSpeed="max">
        <route edges="C2C1"/>
    </vehicle>
    <vehicle id="19" depart="49.40" departLane="best" departSpeed="max">
        <route edges="C1C0 C0B0 B0B1 B1B2 B2C2"/>
    </vehicle>
    <vehicle id="20" depart="52.00" departLane="best" departSpeed="max">
        <route edges="B0A0 A0A1 A1B1 B1B2 B2A2 A2A1"/>
    </vehicle>
    <vehicle id="21" depart="54.60" departLane="best" departSpeed="max">
        <route edges="A2B2 B2B1 B1A1 A1A0 A0B0"/>
    </vehicle>
    <vehicle id="22" depart="57.20" departLane="best" departSpeed="max">
        <route edges="C0C1 C1B1 B1B0 B0C0"/>
    </vehicle>
    <vehicle id="23" depart="59.80" departLane="best" departSpeed="max">
        <route edges="C1C0 C0B0 B0C0"/>
    </vehicle>
    <vehicle id="24" depart="62.40" departLane="best" departSpeed="max">
        <route edges="C2B2 B2B1 B1C1 C1C0"/>
    </vehicle>
    <vehicle id="25" depart="65.00" departLane="best" departSpeed="max">
        <route edges="A0A1 A1B1 B1B2 B2A2 A2A1"/>
    </vehicle>
    <vehicle id="26" depart="67.60" departLane="best" departSpeed="max">
        <route edges="C1C2 C2B2 B2B1 B1B0"/>
    </vehicle>
    <vehicle id="27" depart="70.20" departLane="best" departSpeed="max">
        <route edges="C2C1 C1B1 B1B0 B0C0"/>
    </vehicle>
    <vehicle id="28" depart="72.80" departLane="best" departSpeed="max">
        <route edges="A0B0 B0B1 B1B2 B2B1"/>
    </vehicle>
    <vehicle id="29" depart="75.40" departLane="best" departSpeed="max">
        <route edges="C0C1 C1B1 B1A1 A1A2 A2B2"/>
    </vehicle>
    <vehicle id="30" depart="78.00" departLane="best" departSpeed="max">
        <route edges="A1A0 A0B0 B0A0"/>
    </vehicle>
    <vehicle id="31" depart="80.60" departLane="best" departSpeed="max">
        <route edges="C2C1 C1B1 B1B0 B0C0 C0C1"/>
    </vehicle>
    <vehicle id="32" depart="83.20" departLane="best" departSpeed="max">
        <route edges="A1A0 A0B0 B0B1 B1B2 B2A2 A2A1"/>
    </vehicle>
    <vehicle id="33" depart="85.80" departLane="best" departSpeed="max">
        <route edges="A1A0 A0B0"/>
    </vehicle>
    <vehicle id="34" depart="88.40" departLane="best" departSpeed="max">
        <route edges="C1B1 B1A1 A1B1"/>
    </vehicle>
    <vehicle id="35" depart="91.00" departLane="best" departSpeed="max">
        <route edges="B1C1 C1B1 B1A1"/>
    </vehicle>
    <vehicle id="36" depart="93.60" departLane="best" departSpeed="max">
        <route edges="A1B1 B1C1 C1C0 C0B0"/>
    </vehicle>
    <vehicle id="37" depart="96.20" departLane="best" departSpeed="max">
        <route edges="A1A2 A2B2 B2B1"/>
    </vehicle>
    <vehicle id="38" depart="98.80" departLane="best" departSpeed="max">
        <route edges="A1A0 A0B0 B0B1 B1A1"/>
    </vehicle>
    <vehicle id="39" depart="101.40" departLane="best" departSpeed="max">
        <route edges="A2A1 A1A2 A2B2"/>
    </vehicle>
    <vehicle id="40" depart="104.00" departLane="best" departSpeed="max">
        <route edges="C2C1 C1B1"/>
    </vehicle>
    <vehicle id="41" depart="106.60" departLane="best" departSpeed="max">
        <route edges="B0A0 A0A1 A1B1 B1C1 C1C2"/>
    </vehicle>
    <vehicle id="42" depart="109.20" departLane="best" departSpeed="max">
        <route edges="A2A1 A1A0 A0B0 B0C0"/>
    </vehicle>
    <vehicle id="43" depart="111.80" departLane="best" departSpeed="max">
        <route edges="C1C0 C0B0 B0B1 B1B2 B2B1"/>
    </vehicle>
    <vehicle id="44" depart="114.40" departLane="best" departSpeed="max">
        <route edges="A1A0 A0B0 B0B1 B1B2 B2C2 C2C1"/>
    </vehicle>
    <vehicle id="45" depart="117.00" departLane="best" departSpeed="max">
        <route edges="A2A1 A1A2 A2B2"/>
    </vehicle>
    <vehicle id="46" depart="119.60" departLane="best" departSpeed="max">
        <route edges="C0C1 C1B1 B1B0 B0A0"/>
    </vehicle>
    <vehicle id="47" depart="122.20" departLane="best" departSpeed="max">
        <route edges="B0A0 A0A1 A1A0 A0B0"/>
    </vehicle>
    <vehicle id="48" depart="124.80" departLane="best" departSpeed="max">
        <route edges="A1A0 A0B0 B0B1 B1C1"/>
    </vehicle>
    <vehicle id="49" depart="127.40" departLane="best" departSpeed="max">
        <route edges="A2A1 A1B1 B1B2 B2A2"/>
    </vehicle>
    <vehicle id="50" depart="130.00" departLane="best" departSpeed="max">
        <route edges="B0B1 B1A1"/>
    </vehicle>
    <vehicle id="51" depart="132.60" departLane="best" departSpeed="max">
        <route edges="C2C1 C1B1 B1B0"/>
    </vehicle>
    <vehicle id="52" depart="135.20" departLane="best" departSpeed="max">
        <route edges="B1C1 C1C0"/>
    </vehicle>
    <vehicle id="53" depart="137.80" departLane="best" departSpeed="max">
        <route edges="A1B1 B1A1 A1A2"/>
    </vehicle>
    <vehicle id="54" depart="140.40" departLane="best" departSpeed="max">
        <route edges="C1C2 C2B2 B2C2 C2C1 C1B1"/>
    </vehicle>
    <vehicle id="55" depart="143.00" departLane="best" departSpeed="max">
        <route edges="A2A1 A1B1"/>
    </vehicle>
    <vehicle id="56" depart="145.60" departLane="best" departSpeed="max">
        <route edges="C0B0 B0B1 B1C1 C1C2 C2B2"/>
    </vehicle>
    <vehicle id="57" depart="148.20" departLane="best" departSpeed="max">
        <route edges="A1B1 B1C1 C1C2 C2B2"/>
    </vehicle>
    <vehicle id="58" depart="150.80" departLane="best" departSpeed="max">
        <route edges="C1C2 C2B2 B2A2"/>
    </vehicle>
    <vehicle id="59" depart="153.40" departLane="best" departSpeed="max">
        <route edges="B1A1 A1A0"/>
    </vehicle>
    <vehicle id="60" depart="156.00" departLane="best" departSpeed="max">
        <route edges="A0A1 A1A2 A2B2 B2C2 C2C1"/>
    </vehicle>
    <vehicle id="61" depart="158.60" departLane="best" departSpeed="max">
        <route edges="A2A1 A1B1 B1B2 B2C2"/>
    </vehicle>
    <vehicle id="62" depart="161.20" departLane="best" departSpeed="max">
        <route edges="A2B2 B2C2 C2C1 C1B1"/>
    </vehicle>
    <vehicle id="63" depart="163.80" departLane="best" departSpeed="max">
        <route edges="B2A2 A2A1 A1B1 B1B0 B0A0"/>
    </vehicle>
    <vehicle id="64" depart="166.40" departLane="best" departSpeed="max">
        <route edges="A1B1 B1C1 C1C0 C0B0"/>
    </vehicle>
    <vehicle id="65" depart="169.00" departLane="best" departSpeed="max">
        <route edges="A0B0 B0B1 B1B2 B2A2 A2A1"/>
    </vehicle>
    <vehicle id="66" depart="171.60" departLane="best" departSpeed="max">
        <route edges="B1C1 C1C0"/>
    </vehicle>
    <vehicle id="67" depart="174.20" departLane="best" departSpeed="max">
        <route edges="B2A2 A2A1 A1A2 A2B2"/>
    </vehicle>
    <vehicle id="68" depart="176.80" departLane="best" departSpeed="max">
        <route edges="C2B2 B2A2 A2A1 A1B1"/>
    </vehicle>
    <vehicle id="69" depart="179.40" departLane="best" departSpeed="max">
        <route edges="A0A1 A1A2 A2B2"/>
    </vehicle>
    <vehicle id="70" depart="182.00" departLane="best" departSpeed="max">
        <route edges="B1A1 A1A0 A0B0"/>
    </vehicle>
    <vehicle id="71" depart="184.60" departLane="best" departSpeed="max">
        <route edges="A1B1 B1B0 B0B1"/>
    </vehicle>
    <vehicle id="72" depart="187.20" departLane="best" departSpeed="max">
        <route edges="B1C1 C1B1 B1A1 A1A2"/>
    </vehicle>
    <vehicle id="73" depart="189.80" departLane="best" departSpeed="max">
        <route edges="B0B1 B1C1 C1C2"/>
    </vehicle>
    <vehicle id="74" depart="192.40" departLane="best" departSpeed="max">
        <route edges="C2C1 C1B1 B1B2 B2B1"/>
    </vehicle>
    <vehicle id="75" depart="195.00" departLane="best" departSpeed="max">
        <route edges="B2C2 C2C1 C1B1 B1B2 B2A2"/>
    </vehicle>
    <vehicle id="76" depart="197.60" departLane="best" departSpeed="max">
        <route edges="A1A2 A2B2 B2B1 B1B0 B0A0 A0A1"/>
    </vehicle>
    <vehicle id="77" depart="200.20" departLane="best" departSpeed="max">
        <route edges="A0A1 A1B1 B1C1 C1C2"/>
    </vehicle>
    <vehicle id="78" depart="202.80" departLane="best" departSpeed="max">
        <route edges="B2C2 C2C1"/>
    </vehicle>
    <vehicle id="79" depart="205.40" departLane="best" departSpeed="max">
        <route edges="A0A1 A1A2 A2B2 B2B1"/>
    </vehicle>
    <vehicle id="80" depart="208.00" departLane="best" departSpeed="max">
        <route edges="B1B0 B0B1 B1C1 C1C0 C0B0"/>
    </vehicle>
    <vehicle id="81" depart="210.60" departLane="best" departSpeed="max">
        <route edges="B0A0 A0A1 A1A2 A2B2 B2C2 C2C1"/>
    </vehicle>
    <vehicle id="82" depart="213.20" departLane="best" departSpeed="max">
        <route edges="A0B0 B0B1 B1C1"/>
    </vehicle>
    <vehicle id="83" depart="215.80" departLane="best" departSpeed="max">
        <route edges="C0B0 B0B1 B1C1 C1C2"/>
    </vehicle>
    <vehicle id="84" depart="218.40" departLane="best" departSpeed="max">
        <route edges="C0B0 B0B1 B1B2 B2C2"/>
    </vehicle>
    <vehicle id="85" depart="221.00" departLane="best" departSpeed="max">
        <route edges="C1B1 B1C1 C1C2"/>
    </vehicle>
    <vehicle id="86" depart="223.60" departLane="best" departSpeed="max">
        <route edges="B0B1 B1B2 B2C2"/>
    </vehicle>
    <vehicle id="87" depart="226.20" departLane="best" departSpeed="max">
        <route edges="C1C2 C2B2 B2B1 B1C1 C1C0"/>
    </vehicle>
    <vehicle id="88" depart="228.80" departLane="best" departSpeed="max">
        <route edges="B1A1 A1A0 A0B0 B0C0 C0C1"/>
    </vehicle>
    <vehicle id="89" depart="231.40" departLane="best" departSpeed="max">
        <route edges="C1C0 C0B0 B0B1 B1C1"/>
    </vehicle>
    <vehicle id="90" depart="234.00" departLane="best" departSpeed="max">
        <route edges="B2A2 A2A1 A1A0 A0B0 B0C0"/>
    </vehicle>
    <vehicle id="91" depart="236.60" departLane="best" departSpeed="max">
        <route edges="B1C1 C1C2 C2B2 B2A2"/>
    </vehicle>
    <vehicle id="92" depart="239.20" departLane="best" departSpeed="max">
        <route edges="A0B0 B0B1 B1B2 B2B1"/>
    </vehicle>
    <vehicle id="93" depart="241.80" departLane="best" departSpeed="max">
        <route edges="C2C1 C1C2"/>
    </vehicle>
    <vehicle id="94" depart="244.40" departLane="best" departSpeed="max">
        <route edges="C0B0 B0C0"/>
    </vehicle>
    <vehicle id="95" depart="247.00" departLane="best" departSpeed="max">
        <route edges="C0B0 B0B1 B1C1"/>
    </vehicle>
    <vehicle id="96" depart="249.60" departLane="best" departSpeed="max">
        <route edges="B1A1 A1B1 B1C1 C1C0"/>
    </vehicle>
    <vehicle id="97" depart="252.20" departLane="best" departSpeed="max">
        <route edges="A1A0 A0B0 B0C0 C0C1"/>
    </vehicle>
    <vehicle id="98" depart="254.80" departLane="best" departSpeed="max">
        <route edges="A0A1 A1B1 B1B2 B2A2"/>
    </vehicle>
    <vehicle id="99" depart="257.40" departLane="best" departSpeed="max">
        <route edges="B1B0 B0B1 B1B2 B2A2 A2A1"/>
    </vehicle>
    <vehicle id="100" depart="260.00" departLane="best" departSpeed="max">
        <route edges="B2C2 C2C1 C1B1 B1B0"/>
    </vehicle>
    <vehicle id="101" depart="262.60" departLane="best" departSpeed="max">
        <route edges="B2A2 A2A1 A1B1 B1C1 C1C2 C2B2"/>
    </vehicle>
    <vehicle id="102" depart="265.20" departLane="best" departSpeed="max">
        <route edges="A2B2 B2B1 B1B0 B0A0 A0A1"/>
    </vehicle>
    <vehicle id="103" depart="267.80" departLane="best" departSpeed="max">
        <route edges="B0A0 A0A1 A1A2 A2B2 B2C2"/>
    </vehicle>
    <vehicle id="104" depart="270.40" departLane="best" departSpeed="max">
        <route edges="A1B1"/>
    </vehicle>
    <vehicle id="105" depart="273.00" departLane="best" departSpeed="max">
        <route edges="C1C2 C2B2 B2B1"/>
    </vehicle>
    <vehicle id="106" depart="275.60" departLane="best" departSpeed="max">
        <route edges="B1A1 A1B1 B1C1 C1C2"/>
    </vehicle>
    <vehicle id="107" depart="278.20" departLane="best" departSpeed="max">
        <route edges="B0A0 A0A1 A1A2 A2B2 B2B1"/>
    </vehicle>
    <vehicle id="108" depart="280.80" departLane="best" departSpeed="max">
        <route edges="A1B1 B1A1"/>
    </vehicle>
    <vehicle id="109" depart="283.40" departLane="best" departSpeed="max">
        <route edges="C1B1 B1C1 C1C2"/>
    </vehicle>
    <vehicle id="110" depart="286.00" departLane="best" departSpeed="max">
        <route edges="C1C2 C2B2 B2B1 B1B0 B0C0"/>
    </vehicle>
    <vehicle id="111" depart="288.60" departLane="best" departSpeed="max">
        <route edges="B1C1 C1C0 C0B0 B0A0"/>
    </vehicle>
    <vehicle id="112" depart="291.20" departLane="best" departSpeed="max">
        <route edges="A1A2 A2B2 B2B1 B1B0"/>
    </vehicle>
    <vehicle id="113" depart="293.80" departLane="best" departSpeed="max">
        <route edges="C1C0"/>
    </vehicle>
    <vehicle id="114" depart="296.40" departLane="best" departSpeed="max">
        <route edges="C0B0 B0B1 B1C1 C1C2 C2B2"/>
    </vehicle>
    <vehicle id="115" depart="299.00" departLane="best" departSpeed="max">
        <route edges="A2B2 B2B1 B1A1 A1B1"/>
    </vehicle>
    <vehicle id="116" depart="301.60" departLane="best" departSpeed="max">
        <route edges="B1A1 A1A2 A2B2"/>
    </vehicle>
    <vehicle id="117" depart="304.20" departLane="best" departSpeed="max">
        <route edges="A2A1 A1A0 A0B0 B0C0"/>
    </vehicle>
    <vehicle id="118" depart="306.80" departLane="best" departSpeed="max">
        <route edges="B2B1 B1B0"/>
    </vehicle>
    <vehicle id="119" depart="309.40" departLane="best" departSpeed="max">
        <route edges="B0A0 A0A1 A1B1 B1C1 C1C0"/>
    </vehicle>
    <vehicle id="120" depart="312.00" departLane="best" departSpeed="max">
        <route edges="C2C1 C1B1 B1A1"/>
    </vehicle>
    <vehicle id="121" depart="314.60" departLane="best" departSpeed="max">
        <route edges="A0B0 B0A0 A0A1"/>
    </vehicle>
    <vehicle id="122" depart="317.20" departLane="best" departSpeed="max">
        <route edges="C1C0 C0B0 B0A0 A0A1"/>
    </vehicle>
    <vehicle id="123" depart="319.80" departLane="best" departSpeed="max">
        <route edges="C0B0 B0B1 B1C1"/>
    </vehicle>
    <vehicle id="124" depart="322.40" departLane="best" departSpeed="max">
        <route edges="B0A0 A0A1 A1B1 B1B0 B0C0 C0C1"/>
    </vehicle>
    <vehicle id="125" depart="325.00" departLane="best" departSpeed="max">
        <route edges="A0A1 A1A2"/>
    </vehicle>
    <vehicle id="126" depart="327.60" departLane="best" departSpeed="max">
        <route edges="B1A1 A1B1 B1B0 B0A0 A0A1"/>
    </vehicle>
    <vehicle id="127" depart="330.20" departLane="best" departSpeed="max">
        <route edges="C1B1 B1B2 B2A2 A2A1"/>
    </vehicle>
    <vehicle id="128" depart="332.80" departLane="best" departSpeed="max">
        <route edges="A1A2 A2B2 B2B1 B1A1 A1A0 A0B0"/>
    </vehicle>
    <vehicle id="129" depart="335.40" departLane="best" departSpeed="max">
        <route edges="B2B1 B1A1"/>
    </vehicle>
    <vehicle id="130" depart="338.00" departLane="best" departSpeed="max">
        <route edges="B2B1"/>
    </vehicle>
    <vehicle id="131" depart="340.60" departLane="best" departSpeed="max">
        <route edges="C1B1 B1B2 B2C2 C2C1"/>
    </vehicle>
    <vehicle id="132" depart="343.20" departLane="best" departSpeed="max">
        <route edges="B2C2 C2C1 C1B1 B1A1 A1B1"/>
    </vehicle>
    <vehicle id="133" depart="345.80" departLane="best" departSpeed="max">
        <route edges="B1B0 B0A0 A0A1 A1B1"/>
    </vehicle>
    <vehicle id="134" depart="348.40" departLane="best" departSpeed="max">
        <route edges="A0A1 A1B1 B1B0"/>
    </vehicle>
    <vehicle id="135" depart="351.00" departLane="best" departSpeed="max">
        <route edges="C0B0 B0A0 A0A1 A1B1"/>
    </vehicle>
    <vehicle id="136" depart="353.60" departLane="best" departSpeed="max">
        <route edges="A2B2 B2B1 B1B0 B0B1"/>
    </vehicle>
    <vehicle id="137" depart="356.20" departLane="best" departSpeed="max">
        <route edges="B2C2 C2C1 C1B1 B1B2"/>
    </vehicle>
    <vehicle id="138" depart="358.80" departLane="best" departSpeed="max">
        <route edges="B2A2 A2A1 A1A0 A0B0 B0C0 C0C1"/>
    </vehicle>
    <vehicle id="139" depart="361.40" departLane="best" departSpeed="max">
        <route edges="B0C0 C0C1 C1B1"/>
    </vehicle>
    <vehicle id="140" depart="364.00" departLane="best" departSpeed="max">
        <route edges="C1C2 C2B2 B2A2 A2A1 A1A0"/>
    </vehicle>
    <vehicle id="141" depart="366.60" departLane="best" departSpeed="max">
        <route edges="C2B2 B2B1 B1C1 C1C0 C0B0"/>
    </vehicle>
    <vehicle id="142" depart="369.20" departLane="best" departSpeed="max">
        <route edges="A1A2 A2B2 B2B1 B1A1"/>
    </vehicle>
    <vehicle id="143" depart="371.80" departLane="best" departSpeed="max">
        <route edges="B2B1 B1C1 C1C2"/>
    </vehicle>
    <vehicle id="144" depart="374.40" departLane="best" departSpeed="max">
        <route edges="B0C0 C0C1 C1B1 B1C1"/>
    </vehicle>
    <vehicle id="145" depart="377.00" departLane="best" departSpeed="max">
        <route edges="C1C2 C2B2 B2C2 C2C1 C1B1"/>
    </vehicle>
    <vehicle id="146" depart="379.60" departLane="best" departSpeed="max">
        <route edges="C2B2 B2B1 B1B0"/>
    </vehicle>
    <vehicle id="147" depart="382.20" departLane="best" departSpeed="max">
        <route edges="B2B1 B1A1 A1B1"/>
    </vehicle>
    <vehicle id="148" depart="384.80" departLane="best" departSpeed="max">
        <route edges="C0B0 B0B1 B1C1 C1B1"/>
    </vehicle>
    <vehicle id="149" depart="387.40" departLane="best" departSpeed="max">
        <route edges="B2B1 B1C1 C1C0 C0B0"/>
    </vehicle>
    <vehicle id="150" depart="390.00" departLane="best" departSpeed="max">
        <route edges="A2A1 A1B1 B1C1 C1C2"/>
    </vehicle>
    <vehicle id="151" depart="392.60" departLane="best" departSpeed="max">
        <route edges="C2C1"/>
    </vehicle>
    <vehicle id="152" depart="395.20" departLane="best" departSpeed="max">
        <route edges="B1B2 B2B1 B1B0 B0C0 C0C1"/>
    </vehicle>
    <vehicle id="153" depart="397.80" departLane="best" departSpeed="max">
        <route edges="B0A0 A0A1 A1B1 B1C1 C1C2"/>
    </vehicle>
    <vehicle id="154" depart="400.40" departLane="best" departSpeed="max">
        <route edges="C1C0 C0B0 B0B1"/>
    </vehicle>
    <vehicle id="155" depart="403.00" departLane="best" departSpeed="max">
        <route edges="A0B0 B0B1 B1A1"/>
    </vehicle>
    <vehicle id="156" depart="405.60" departLane="best" departSpeed="max">
        <route edges="B1C1 C1C0 C0B0 B0C0 C0C1"/>
    </vehicle>
    <vehicle id="157" depart="408.20" departLane="best" departSpeed="max">
        <route edges="B1B0 B0A0 A0A1"/>
    </vehicle>
    <vehicle id="158" depart="410.80" departLane="best" departSpeed="max">
        <route edges="C1B1 B1A1 A1A0 A0B0"/>
    </vehicle>
    <vehicle id="159" depart="413.40" departLane="best" departSpeed="max">
        <route edges="C1B1 B1A1 A1B1"/>
    </vehicle>
    <vehicle id="160" depart="416.00" departLane="best" departSpeed="max">
        <route edges="B0B1 B1B0 B0C0 C0C1"/>
    </vehicle>
    <vehicle id="161" depart="418.60" departLane="best" departSpeed="max">
        <route edges="A1A2"/>
    </vehicle>
    <vehicle id="162" depart="421.20" departLane="best" departSpeed="max">
        <route edges="B1B2 B2C2 C2C1 C1C0 C0B0"/>
    </vehicle>
    <vehicle id="163" depart="423.80" departLane="best" departSpeed="max">
        <route edges="C1C0 C0B0 B0B1 B1B2 B2C2"/>
    </vehicle>
    <vehicle id="164" depart="426.40" departLane="best" departSpeed="max">
        <route edges="C2B2 B2B1 B1B0"/>
    </vehicle>
    <vehicle id="165" depart="429.00" departLane="best" departSpeed="max">
        <route edges="C2B2 B2A2 A2A1 A1A0"/>
    </vehicle>
    <vehicle id="166" depart="431.60" departLane="best" departSpeed="max">
        <route edges="A2A1 A1B1 B1B2"/>
    </vehicle>
    <vehicle id="167" depart="434.20" departLane="best" departSpeed="max">
        <route edges="A2B2 B2C2 C2C1 C1C0 C0B0"/>
    </vehicle>
    <vehicle id="168" depart="436.80" departLane="best" departSpeed="max">
        <route edges="B2B1 B1B2"/>
    </vehicle>
    <vehicle id="169" depart="439.40" departLane="best" departSpeed="max">
        <route edges="C1C0 C0B0 B0B1 B1C1"/>
    </vehicle>
    <vehicle id="170" depart="442.00" departLane="best" departSpeed="max">
        <route edges="B0A0 A0A1 A1B1 B1B0 B0C0"/>
    </vehicle>
    <vehicle id="171" depart="444.60" departLane="best" departSpeed="max">
        <route edges="C1C0 C0B0 B0B1 B1C1 C1C2"/>
    </vehicle>
    <vehicle id="172" depart="447.20" departLane="best" departSpeed="max">
        <route edges="A1B1 B1C1 C1C0"/>
    </vehicle>
    <vehicle id="173" depart="449.80" departLane="best" departSpeed="max">
        <route edges="C2C1 C1B1 B1B2"/>
    </vehicle>
    <vehicle id="174" depart="452.40" departLane="best" departSpeed="max">
        <route edges="B1C1 C1B1 B1A1 A1B1"/>
    </vehicle>
    <vehicle id="175" depart="455.00" departLane="best" departSpeed="max">
        <route edges="B1B2"/>
    </vehicle>
    <vehicle id="176" depart="457.60" departLane="best" departSpeed="max">
        <route edges="B2A2 A2A1 A1B1 B1B0 B0A0 A0A1"/>
    </vehicle>
    <vehicle id="177" depart="460.20" departLane="best" departSpeed="max">
        <route edges="C2C1 C1B1 B1B2"/>
    </vehicle>
    <vehicle id="178" depart="462.80" departLane="best" departSpeed="max">
        <route edges="B0C0 C0C1 C1B1"/>
    </vehicle>
    <vehicle id="179" depart="465.40" departLane="best" departSpeed="max">
        <route edges="B1C1 C1B1 B1B0"/>
    </vehicle>
    <vehicle id="180" depart="468.00" departLane="best" departSpeed="max">
        <route edges="B2C2 C2C1 C1B1 B1A1 A1A0 A0B0"/>
    </vehicle>
    <vehicle id="181" depart="470.60" departLane="best" departSpeed="max">
        <route edges="B1B2 B2B1 B1B0 B0C0"/>
    </vehicle>
    <vehicle id="182" depart="473.20" departLane="best" departSpeed="max">
        <route edges="C2B2"/>
    </vehicle>
    <vehicle id="183" depart="475.80" departLane="best" departSpeed="max">
        <route edges="A2B2 B2B1 B1B0"/>
    </vehicle>
    <vehicle id="184" depart="478.40" departLane="best" departSpeed="max">
        <route edges="A1A2 A2B2 B2B1 B1A1"/>
    </vehicle>
    <vehicle id="185" depart="481.00" departLane="best" departSpeed="max">
        <route edges="C1B1 B1C1 C1C2"/>
    </vehicle>
    <vehicle id="186" depart="483.60" departLane="best" departSpeed="max">
        <route edges="B1B0 B0A0"/>
    </vehicle>
    <vehicle id="187" depart="486.20" departLane="best" departSpeed="max">
        <route edges="A1B1 B1B2 B2A2"/>
    </vehicle>
    <vehicle id="188" depart="488.80" departLane="best" departSpeed="max">
        <route edges="C2B2 B2B1 B1A1 A1A2"/>
    </vehicle>
    <vehicle id="189" depart="491.40" departLane="best" departSpeed="max">
        <route edges="C0C1 C1B1 B1B0 B0A0 A0A1"/>
    </vehicle>
    <vehicle id="190" depart="494.00" departLane="best" departSpeed="max">
        <route edges="A1B1 B1B2 B2A2 A2A1"/>
    </vehicle>
    <vehicle id="191" depart="496.60" departLane="best" departSpeed="max">
        <route edges="B2C2 C2C1 C1C0 C0B0 B0A0"/>
    </vehicle>
    <vehicle id="192" depart="499.20" departLane="best" departSpeed="max">
        <route edges="B0B1 B1B2 B2A2"/>
    </vehicle>
    <vehicle id="193" depart="501.80" departLane="best" departSpeed="max">
        <route edges="A1A0 A0B0 B0B1 B1C1 C1C0 C0B0"/>
    </vehicle>
    <vehicle id="194" depart="504.40" departLane="best" departSpeed="max">
        <route edges="A1A0 A0B0 B0B1 B1B2"/>
    </vehicle>
    <vehicle id="195" depart="507.00" departLane="best" departSpeed="max">
        <route edges="A2B2 B2B1 B1A1 A1B1"/>
    </vehicle>
    <vehicle id="196" depart="509.60" departLane="best" departSpeed="max">
        <route edges="B1B2 B2B1 B1A1"/>
    </vehicle>
    <vehicle id="197" depart="512.20" departLane="best" departSpeed="max">
        <route edges="B0C0"/>
    </vehicle>
    <vehicle id="198" depart="514.80" departLane="best" departSpeed="max">
        <route edges="B1B2 B2B1 B1A1 A1A2"/>
    </vehicle>
    <vehicle id="199" depart="517.40" departLane="best" departSpeed="max">
        <route edges="A1B1 B1B2 B2B1"/>
    </vehicle>
    <vehicle id="200" depart="520.00" departLane="best" departSpeed="max">
        <route edges="B2B1 B1B2"/>
    </vehicle>
    <vehicle id="201" depart="522.60" departLane="best" departSpeed="max">
        <route edges="C1C0 C0B0 B0B1 B1B2 B2A2"/>
    </vehicle>
    <vehicle id="202" depart="525.20" departLane="best" departSpeed="max">
        <route edges="C1C0 C0B0 B0B1 B1B2 B2A2 A2A1"/>
    </vehicle>
    <vehicle id="203" depart="527.80" departLane="best" departSpeed="max">
        <route edges="C0B0 B0B1 B1C1 C1B1"/>
    </vehicle>
    <vehicle id="204" depart="530.40" departLane="best" departSpeed="max">
        <route edges="C1C2 C2B2 B2B1 B1B0 B0A0"/>
    </vehicle>
    <vehicle id="205" depart="533.00" departLane="best" departSpeed="max">
        <route edges="B0A0 A0A1 A1B1 B1C1 C1C2 C2B2"/>
    </vehicle>
    <vehicle id="206" depart="535.60" departLane="best" departSpeed="max">
        <route edges="A2A1 A1B1 B1B2 B2C2 C2C1"/>
    </vehicle>
    <vehicle id="207" depart="538.20" departLane="best" departSpeed="max">
        <route edges="C1C2 C2B2 B2B1 B1A1 A1A2"/>
    </vehicle>
    <vehicle id="208" depart="540.80" departLane="best" departSpeed="max">
        <route edges="A2A1 A1B1 B1C1 C1C0 C0B0"/>
    </vehicle>
    <vehicle id="209" depart="543.40" departLane="best" departSpeed="max">
        <route edges="A2B2 B2B1 B1A1 A1A0"/>
    </vehicle>
    <vehicle id="210" depart="546.00" departLane="best" departSpeed="max">
        <route edges="C1B1 B1A1"/>
    </vehicle>
    <vehicle id="211" depart="548.60" departLane="best" departSpeed="max">
        <route edges="C0C1 C1B1 B1A1 A1A2"/>
    </vehicle>
    <vehicle id="212" depart="551.20" departLane="best" departSpeed="max">
        <route edges="B0C0 C0C1 C1B1 B1B2 B2C2"/>
    </vehicle>
    <vehicle id="213" depart="553.80" departLane="best" departSpeed="max">
        <route edges="A0A1 A1B1"/>
    </vehicle>
    <vehicle id="214" depart="556.40" departLane="best" departSpeed="max">
        <route edges="B2C2 C2C1 C1C2"/>
    </vehicle>