<?xml version="1.0" encoding="UTF-8"?>

<!-- generated on 2025-08-13 22:05:07.271122 by randomTrips.py v1_24_0+0000-b72eb3fabc8
<configuration>
    <net-file value="sumo/scenarios/downtown/net.net.xml"/>
    <route-file value="sumo/scenarios/downtown/routes.rou.xml"/>
    <trip-attributes value="departLane=&quot;best&quot; departSpeed=&quot;max&quot;"/>
    <seed value="31"/>
    <end value="1200.0"/>
    <period value="0.7"/>
</configuration>
-->

<!-- generated on 2025-08-13 22:05:07 by Eclipse SUMO duarouter Version 1.24.0
<duarouterConfiguration xmlns:xsi="http://www.w3.org/2001/XMLSchema-instance" xsi:noNamespaceSchemaLocation="http://sumo.dlr.de/xsd/duarouterConfiguration.xsd">

    <input>
        <net-file value="sumo/scenarios/downtown/net.net.xml"/>
        <route-files value="trips.trips.xml"/>
    </input>

    <output>
        <output-file value="sumo/scenarios/downtown/routes.rou.xml"/>
        <alternatives-output value="NUL"/>
    </output>

    <time>
        <begin value="0.0"/>
        <end value="1200.0"/>
    </time>

    <report>
        <no-warnings value="true"/>
        <ignore-errors value="true"/>
        <no-step-log value="true"/>
    </report>

</duarouterConfiguration>
-->

<routes xmlns:xsi="http://www.w3.org/2001/XMLSchema-instance" xsi:noNamespaceSchemaLocation="http://sumo.dlr.de/xsd/routes_file.xsd">
    <vehicle id="0" depart="0.00" departLane="best" departSpeed="max">
        <route edges="A0B0 B0B1 B1B2 B2B3 B3A3 A3A4 A4B4"/>
    </vehicle>
    <vehicle id="1" depart="0.70" departLane="best" departSpeed="max">
        <route edges="C2C3 C3D3 D3E3 E3E2 E2E1 E1E0 E0D0"/>
    </vehicle>
    <vehicle id="2" depart="1.40" departLane="best" departSpeed="max">
        <route edges="B0A0 A0A1 A1A2 A2A3 A3A4 A4B4"/>
    </vehicle>
    <vehicle id="3" depart="2.10" departLane="best" departSpeed="max">
        <route edges="B3A3 A3A2 A2B2 B2C2 C2D2 D2E2 E2E1"/>
    </vehicle>
    <vehicle id="4" depart="2.80" departLane="best" departSpeed="max">
        <route edges="B0B1 B1C1 C1D1 D1E1 E1F1"/>
    </vehicle>
    <vehicle id="5" depart="3.50" departLane="best" departSpeed="max">
        <route edges="D5C5 C5B5 B5B4 B4B3 B3B2 B2B1 B1B0 B0A0"/>
    </vehicle>
    <vehicle id="6" depart="4.20" departLane="best" departSpeed="max">
        <route edges="D1D0 D0C0 C0C1 C1C2 C2C3 C3C4 C4B4"/>
    </vehicle>
    <vehicle id="7" depart="4.90" departLane="best" departSpeed="max">
        <route edges="C3B3 B3B4 B4B5 B5C5 C5D5 D5E5 E5F5 F5F4"/>
    </vehicle>
    <vehicle id="8" depart="5.60" departLane="best" departSpeed="max">
        <route edges="A4A3 A3A2 A2A1 A1A0"/>
    </vehicle>
    <vehicle id="9" depart="6.30" departLane="best" departSpeed="max">
        <route edges="F3E3 E3D3 D3C3 C3C2 C2D2"/>
    </vehicle>
    <vehicle id="10" depart="7.00" departLane="best" departSpeed="max">
        <route edges="B2A2 A2A1 A1A0 A0B0 B0C0 C0C1"/>
    </vehicle>
    <vehicle id="11" depart="7.70" departLane="best" departSpeed="max">
        <route edges="C1C2 C2C3 C3D3 D3E3 E3F3 F3F4"/>
    </vehicle>
    <vehicle id="12" depart="8.40" departLane="best" departSpeed="max">
        <route edges="B2B3 B3B2 B2C2"/>
    </vehicle>
    <vehicle id="13" depart="9.10" departLane="best" departSpeed="max">
        <route edges="D2E2 E2E1 E1D1 D1D2"/>
    </vehicle>
    <vehicle id="14" depart="9.80" departLane="best" departSpeed="max">
        <route edges="F3F4 F4E4 E4F4"/>
    </vehicle>
    <vehicle id="15" depart="10.50" departLane="best" departSpeed="max">
        <route edges="C1C0 C0B0 B0B1 B1B2 B2B1"/>
    </vehicle>
    <vehicle id="16" depart="11.20" departLane="best" departSpeed="max">
        <route edges="E4F4 F4F5 F5E5"/>
    </vehicle>
    <vehicle id="17" depart="11.90" departLane="best" departSpeed="max">
        <route edges="A1A2 A2B2 B2C2 C2D2 D2E2 E2E1 E1F1"/>
    </vehicle>
    <vehicle id="18" depart="12.60" departLane="best" departSpeed="max">
        <route edges="F0E0 E0D0 D0D1 D1D2 D2D3 D3D4 D4E4"/>
    </vehicle>
    <vehicle id="19" depart="13.30" departLane="best" departSpeed="max">
        <route edges="B2C2 C2D2 D2E2 E2E3 E3E4"/>
    </vehicle>
    <vehicle id="20" depart="14.00" departLane="best" departSpeed="max">
        <route edges="E1E2 E2D2 D2C2 C2B2 B2A2"/>
    </vehicle>
    <vehicle id="21" depart="14.70" departLane="best" departSpeed="max">
        <route edges="D4D3 D3C3 C3B3 B3B2 B2C2"/>
    </vehicle>
    <vehicle id="22" depart="15.40" departLane="best" departSpeed="max">
        <route edges="A1B1 B1B0 B0C0 C0D0"/>
    </vehicle>
    <vehicle id="23" depart="16.10" departLane="best" departSpeed="max">
        <route edges="C0D0 D0D1 D1D2 D2C2 C2C3"/>
    </vehicle>
    <vehicle id="24" depart="16.80" departLane="best" departSpeed="max">
        <route edges="D4D5 D5E5 E5E4 E4F4"/>
    </vehicle>
    <vehicle id="25" depart="17.50" departLane="best" departSpeed="max">
        <route edges="F4E4 E4F4 F4F5"/>
    </vehicle>
    <vehicle id="26" depart="18.20" departLane="best" departSpeed="max">
        <route edges="F5F4 F4F3 F3E3 E3E2"/>
    </vehicle>
    <vehicle id="27" depart="18.90" departLane="best" departSpeed="max">
        <route edges="B5B4 B4B3 B3B2 B2B1 B1B2"/>
    </vehicle>
    <vehicle id="28" depart="19.60" departLane="best" departSpeed="max">
        <route edges="D3E3 E3E2 E2E1 E1D1 D1D2"/>
    </vehicle>
    <vehicle id="29" depart="20.30" departLane="best" departSpeed="max">
        <route edges="D5D4 D4C4 C4B4 B4A4 A4A3"/>
    </vehicle>
    <vehicle id="30" depart="21.00" departLane="best" departSpeed="max">
        <route edges="B2A2 A2B2 B2C2 C2D2 D2E2 E2F2 F2F1"/>
    </vehicle>
    <vehicle id="31" depart="21.70" departLane="best" departSpeed="max">
        <route edges="D3D2 D2D1 D1D0 D0E0 E0E1"/>
    </vehicle>
    <vehicle id="32" depart="22.40" departLane="best" departSpeed="max">
        <route edges="A4A3 A3A2 A2B2 B2C2 C2C3"/>
    </vehicle>
    <vehicle id="33" depart="23.10" departLane="best" departSpeed="max">
        <route edges="F2E2 E2D2 D2D3 D3D4 D4D5"/>
    </vehicle>
    <vehicle id="34" depart="23.80" departLane="best" departSpeed="max">
        <route edges="F5E5 E5D5 D5C5 C5B5 B5B4 B4B3 B3B2 B2A2"/>
    </vehicle>
    <vehicle id="35" depart="24.50" departLane="best" departSpeed="max">
        <route edges="C4C3 C3D3 D3E3 E3F3"/>
    </vehicle>
    <vehicle id="36" depart="25.20" departLane="best" departSpeed="max">
        <route edges="C4B4 B4B3 B3C3 C3D3 D3E3 E3E2"/>
    </vehicle>
    <vehicle id="37" depart="25.90" departLane="best" departSpeed="max">
        <route edges="D2C2 C2B2 B2B3 B3B4 B4B5 B5A5 A5A4"/>
    </vehicle>
    <vehicle id="38" depart="26.60" departLane="best" departSpeed="max">
        <route edges="A4A3 A3B3 B3C3 C3D3 D3E3 E3F3 F3F4 F4F5"/>
    </vehicle>
    <vehicle id="39" depart="27.30" departLane="best" departSpeed="max">
        <route edges="A5A4 A4A3 A3B3 B3B2 B2A2"/>
    </vehicle>
    <vehicle id="40" depart="28.00" departLane="best" departSpeed="max">
        <route edges="C0D0 D0E0 E0E1 E1D1"/>
    </vehicle>
    <vehicle id="41" depart="28.70" departLane="best" departSpeed="max">
        <route edges="E5E4 E4D4 D4D5 D5C5 C5B5"/>
    </vehicle>
    <vehicle id="42" depart="29.40" departLane="best" departSpeed="max">
        <route edges="C5D5 D5E5 E5E4 E4E3 E3E2"/>
    </vehicle>
    <vehicle id="43" depart="30.10" departLane="best" departSpeed="max">
        <route edges="B4B5 B5C5 C5C4 C4C3 C3C2 C2C1 C1D1"/>
    </vehicle>
    <vehicle id="44" depart="30.80" departLane="best" departSpeed="max">
        <route edges="D3D4 D4D3"/>
    </vehicle>
    <vehicle id="45" depart="31.50" departLane="best" departSpeed="max">
        <route edges="A1B1 B1B2 B2B3 B3A3 A3A4 A4B4"/>
    </vehicle>
    <vehicle id="46" depart="32.20" departLane="best" departSpeed="max">
        <route edges="B0A0 A0A1 A1B1 B1C1 C1D1 D1E1 E1E2"/>
    </vehicle>
    <vehicle id="47" depart="32.90" departLane="best" departSpeed="max">
        <route edges="E0E1 E1E2 E2E3 E3E4 E4F4 F4F3"/>
    </vehicle>
    <vehicle id="48" depart="33.60" departLane="best" departSpeed="max">
        <route edges="E2F2 F2E2 E2D2 D2C2 C2B2 B2B3 B3C3"/>
    </vehicle>
    <vehicle id="49" depart="34.30" departLane="best" departSpeed="max">
        <route edges="E2E3 E3F3 F3F4 F4F5 F5E5"/>
    </vehicle>
    <vehicle id="50" depart="35.00" departLane="best" departSpeed="max">
        <route edges="C1B1 B1A1 A1A0 A0B0"/>
    </vehicle>
    <vehicle id="51" depart="35.70" departLane="best" departSpeed="max">
        <route edges="C2B2 B2B3 B3B4 B4B5"/>
    </vehicle>
    <vehicle id="52" depart="36.40" departLane="best" departSpeed="max">
        <route edges="B1B2 B2A2 A2A1"/>
    </vehicle>
    <vehicle id="53" depart="37.10" departLane="best" departSpeed="max">
        <route edges="A5A4 A4B4 B4C4 C4D4 D4E4 E4E5 E5F5"/>
    </vehicle>
    <vehicle id="54" depart="37.80" departLane="best" departSpeed="max">
        <route edges="A2A1 A1B1 B1C1 C1D1 D1D2 D2D3 D3D4"/>
    </vehicle>
    <vehicle id="55" depart="38.50" departLane="best" departSpeed="max">
        <route edges="B2B1 B1B2 B2A2"/>
    </vehicle>
    <vehicle id="56" depart="39.20" departLane="best" departSpeed="max">
        <route edges="E4E3 E3D3 D3C3 C3B3 B3B4 B4B5 B5A5"/>
    </vehicle>
    <vehicle id="57" depart="39.90" departLane="best" departSpeed="max">
        <route edges="B1C1 C1C2 C2C3 C3C4 C4C3"/>
    </vehicle>
    <vehicle id="58" depart="40.60" departLane="best" departSpeed="max">
        <route edges="E0E1 E1D1 D1D0 D0E0"/>
    </vehicle>
    <vehicle id="59" depart="41.30" departLane="best" departSpeed="max">
        <route edges="E5F5 F5F4 F4F3 F3E3 E3D3 D3C3 C3C2 C2D2"/>
    </vehicle>
    <vehicle id="60" depart="42.00" departLane="best" departSpeed="max">
        <route edges="D0E0 E0E1 E1E0"/>
    </vehicle>
    <vehicle id="61" depart="42.70" departLane="best" departSpeed="max">
        <route edges="C4C5 C5D5 D5E5 E5E4 E4E3 E3E2 E2E1 E1E0"/>
    </vehicle>
    <vehicle id="62" depart="43.40" departLane="best" departSpeed="max">
        <route edges="C4D4 D4D3 D3D2 D2D1 D1D0 D0C0 C0B0 B0A0"/>
    </vehicle>
    <vehicle id="63" depart="44.10" departLane="best" departSpeed="max">
        <route edges="A5A4 A4B4 B4C4 C4D4 D4E4 E4E3 E3D3"/>
    </vehicle>
    <vehicle id="64" depart="44.80" departLane="best" departSpeed="max">
        <route edges="E2D2 D2D3 D3E3 E3F3 F3F2"/>
    </vehicle>
    <vehicle id="65" depart="45.50" departLane="best" departSpeed="max">
        <route edges="E0D0 D0D1 D1D2 D2D3"/>
    </vehicle>
    <vehicle id="66" depart="46.20" departLane="best" departSpeed="max">
        <route edges="B1A1 A1A2 A2A3 A3A4 A4A5 A5B5 B5C5 C5D5 D5E5 E5E4"/>
    </vehicle>
    <vehicle id="67" depart="46.90" departLane="best" departSpeed="max">
        <route edges="A5A4 A4A3 A3B3 B3C3 C3C2"/>
    </vehicle>
    <vehicle id="68" depart="47.60" departLane="best" departSpeed="max">
        <route edges="B0A0 A0A1 A1B1 B1C1 C1C2 C2B2"/>
    </vehicle>
    <vehicle id="69" depart="48.30" departLane="best" departSpeed="max">
        <route edges="B5B4 B4B3 B3C3 C3C4"/>
    </vehicle>
    <vehicle id="70" depart="49.00" departLane="best" departSpeed="max">
        <route edges="E1D1 D1D0"/>
    </vehicle>
    <vehicle id="71" depart="49.70" departLane="best" departSpeed="max">
        <route edges="B3B4 B4C4 C4D4 D4E4 E4E3 E3D3"/>
    </vehicle>
    <vehicle id="72" depart="50.40" departLane="best" departSpeed="max">
        <route edges="E1F1 F1F2 F2F3 F3F4 F4E4 E4E5"/>
    </vehicle>
    <vehicle id="73" depart="51.10" departLane="best" departSpeed="max">
        <route edges="A1A2 A2A3 A3B3 B3C3 C3D3 D3D4"/>
    </vehicle>
    <vehicle id="74" depart="51.80" departLane="best" departSpeed="max">
        <route edges="F1F0 F0E0 E0D0 D0C0 C0C1 C1C2 C2C3 C3C4 C4B4 B4A4"/>
    </vehicle>
    <vehicle id="75" depart="52.50" departLane="best" departSpeed="max">
        <route edges="B2B1 B1C1 C1D1 D1E1 E1E2 E2E3 E3E4 E4D4"/>
    </vehicle>
    <vehicle id="76" depart="53.20" departLane="best" departSpeed="max">
        <route edges="C1C2 C2D2"/>
    </vehicle>
    <vehicle id="77" depart="53.90" departLane="best" departSpeed="max">
        <route edges="E4E3 E3E2 E2D2 D2C2 C2C1"/>
    </vehicle>
    <vehicle id="78" depart="54.60" departLane="best" departSpeed="max">
        <route edges="B2A2 A2B2 B2B3"/>
    </vehicle>
    <vehicle id="79" depart="55.30" departLane="best" departSpeed="max">
        <route edges="C1B1 B1B0 B0C0 C0D0 D0E0 E0E1"/>
    </vehicle>
    <vehicle id="80" depart="56.00" departLane="best" departSpeed="max">
        <route edges="C1D1 D1E1 E1E2 E2F2"/>
    </vehicle>
    <vehicle id="81" depart="56.70" departLane="best" departSpeed="max">
        <route edges="A2B2 B2B3 B3B4"/>
    </vehicle>
    <vehicle id="82" depart="57.40" departLane="best" departSpeed="max">
        <route edges="D3E3 E3E4 E4E5 E5D5 D5C5 C5B5"/>
    </vehicle>
    <vehicle id="83" depart="58.10" departLane="best" departSpeed="max">
        <route edges="C5D5 D5E5 E5F5 F5F4 F4F3 F3E3"/>
    </vehicle>
    <vehicle id="84" depart="58.80" departLane="best" departSpeed="max">
        <route edges="B4B5 B5B4 B4B3 B3B2 B2B1 B1B2"/>
    </vehicle>
    <vehicle id="85" depart="59.50" departLane="best" departSpeed="max">
        <route edges="A1B1 B1C1 C1C2 C2C3 C3C4 C4C5 C5B5"/>
    </vehicle>
    <vehicle id="86" depart="60.20" departLane="best" departSpeed="max">
        <route edges="B5A5 A5A4 A4B4 B4C4 C4D4"/>
    </vehicle>
    <vehicle id="87" depart="60.90" departLane="best" departSpeed="max">
        <route edges="A0A1"/>
    </vehicle>
    <vehicle id="88" depart="61.60" departLane="best" departSpeed="max">
        <route edges="C2B2 B2C2 C2D2 D2E2 E2E1"/>
    </vehicle>
    <vehicle id="89" depart="62.30" departLane="best" departSpeed="max">
        <route edges="B5B4 B4B3 B3C3 C3D3 D3E3 E3F3 F3F2 F2E2"/>
    </vehicle>
    <vehicle id="90" depart="63.00" departLane="best" departSpeed="max">
        <route edges="D2D3 D3C3 C3C2 C2D2"/>
    </vehicle>
    <vehicle id="91" depart="63.70" departLane="best" departSpeed="max">
        <route edges="E3D3 D3C3 C3B3 B3A3"/>
    </vehicle>
    <vehicle id="92" depart="64.40" departLane="best" departSpeed="max">
        <route edges="D3D2 D2E2 E2E3 E3E4 E4E5 E5D5"/>
    </vehicle>
    <vehicle id="93" depart="65.10" departLane="best" departSpeed="max">
        <route edges="D1D0 D0C0 C0B0"/>
    </vehicle>
    <vehicle id="94" depart="65.80" departLane="best" departSpeed="max">
        <route edges="A4A3 A3A2 A2B2 B2C2 C2D2 D2D1"/>
    </vehicle>
    <vehicle id="95" depart="66.50" departLane="best" departSpeed="max">
        <route edges="B1C1 C1D1"/>
    </vehicle>
    <vehicle id="96" depart="67.20" departLane="best" departSpeed="max">
        <route edges="D1D2 D2E2 E2F2 F2F3 F3E3"/>
    </vehicle>
    <vehicle id="97" depart="67.90" departLane="best" departSpeed="max">
        <route edges="D5D4 D4D3 D3D2 D2D1 D1D0 D0E0"/>
    </vehicle>
    <vehicle id="98" depart="68.60" departLane="best" departSpeed="max">
        <route edges="E5F5 F5F4 F4E4 E4D4 D4C4 C4B4 B4B5 B5C5"/>
    </vehicle>
    <vehicle id="99" depart="69.30" departLane="best" departSpeed="max">
        <route edges="C2C1 C1D1 D1D2 D2D3 D3D4 D4D5 D5E5"/>
    </vehicle>
    <vehicle id="100" depart="70.00" departLane="best" departSpeed="max">
        <route edges="D1E1 E1D1 D1C1 C1B1 B1B2 B2C2"/>
    </vehicle>
    <vehicle id="101" depart="70.70" departLane="best" departSpeed="max">
        <route edges="C3B3 B3B4 B4C4 C4D4 D4E4 E4E3"/>
    </vehicle>
    <vehicle id="102" depart="71.40" departLane="best" departSpeed="max">
        <route edges="B3B4 B4C4 C4C3 C3C2 C2C1 C1C0 C0D0 D0E0 E0F0"/>
    </vehicle>
    <vehicle id="103" depart="72.10" departLane="best" departSpeed="max">
        <route edges="A2A1 A1B1 B1C1 C1D1 D1E1 E1F1 F1F2 F2F3 F3F4"/>
    </vehicle>
    <vehicle id="104" depart="72.80" departLane="best" departSpeed="max">
        <route edges="E0D0 D0C0 C0B0"/>
    </vehicle>
    <vehicle id="105" depart="73.50" departLane="best" departSpeed="max">
        <route edges="F4F5 F5E5 E5E4 E4E3 E3E4"/>
    </vehicle>
    <vehicle id="106" depart="74.20" departLane="best" departSpeed="max">
        <route edges="A2B2 B2B3 B3B4"/>
    </vehicle>
    <vehicle id="107" depart="74.90" departLane="best" departSpeed="max">
        <route edges="C5D5 D5E5 E5F5 F5F4"/>
    </vehicle>
    <vehicle id="108" depart="75.60" departLane="best" departSpeed="max">
        <route edges="B0A0 A0A1 A1A2 A2A1"/>
    </vehicle>
    <vehicle id="109" depart="76.30" departLane="best" departSpeed="max">
        <route edges="B5C5 C5C4 C4C3 C3C2 C2B2 B2A2 A2A1"/>
    </vehicle>
    <vehicle id="110" depart="77.00" departLane="best" departSpeed="max">
        <route edges="C3B3 B3B2 B2B1 B1C1 C1D1 D1D0"/>
    </vehicle>
    <vehicle id="111" depart="77.70" departLane="best" departSpeed="max">
        <route edges="C3D3 D3D2 D2D1 D1D0 D0C0 C0B0 B0A0"/>
    </vehicle>
    <vehicle id="112" depart="78.40" departLane="best" departSpeed="max">
        <route edges="A1A0 A0B0 B0C0 C0D0 D0E0 E0E1 E1E2 E2E3 E3F3"/>
    </vehicle>
    <vehicle id="113" depart="79.10" departLane="best" departSpeed="max">
        <route edges="C3D3 D3D4 D4D5 D5C5 C5B5"/>
    </vehicle>
    <vehicle id="114" depart="79.80" departLane="best" departSpeed="max">
        <route edges="C5B5 B5B4 B4B3 B3B2 B2B1 B1C1 C1D1 D1E1 E1E0 E0D0"/>
    </vehicle>
    <vehicle id="115" depart="80.50" departLane="best" departSpeed="max">
        <route edges="F1F2 F2F3 F3F4 F4E4 E4E5"/>
    </vehicle>
    <vehicle id="116" depart="81.20" departLane="best" departSpeed="max">
        <route edges="E1E2 E2D2 D2C2 C2C1 C1C0 C0D0"/>
    </vehicle>
    <vehicle id="117" depart="81.90" departLane="best" departSpeed="max">
        <route edges="B1B0 B0A0 A0A1 A1A2 A2A3 A3B3"/>
    </vehicle>
    <vehicle id="118" depart="82.60" departLane="best" departSpeed="max">
        <route edges="E5F5 F5F4 F4F3 F3F2 F2E2 E2D2 D2C2 C2B2 B2A2 A2A3"/>
    </vehicle>
    <vehicle id="119" depart="83.30" departLane="best" departSpeed="max">
        <route edges="D2D1 D1E1 E1F1 F1F2 F2E2"/>
    </vehicle>
    <vehicle id="120" depart="84.00" departLane="best" departSpeed="max">
        <route edges="C0B0 B0B1 B1B2 B2C2 C2C1"/>
    </vehicle>
    <vehicle id="121" depart="84.70" departLane="best" departSpeed="max">
        <route edges="C3C2 C2D2 D2E2 E2E3 E3F3 F3F2"/>
    </vehicle>
    <vehicle id="122" depart="85.40" departLane="best" departSpeed="max">
        <route edges="E0D0 D0D1 D1D2 D2D3 D3D4 D4E4 E4F4"/>
    </vehicle>
    <vehicle id="123" depart="86.10" departLane="best" departSpeed="max">
        <route edges="A1B1 B1C1 C1D1 D1E1 E1E2"/>
    </vehicle>
    <vehicle id="124" depart="86.80" departLane="best" departSpeed="max">
        <route edges="C4C3 C3C2 C2D2"/>
    </vehicle>
    <vehicle id="125" depart="87.50" departLane="best" departSpeed="max">
        <route edges="E4D4 D4D3 D3D2 D2D1 D1E1 E1F1"/>
    </vehicle>
    <vehicle id="126" depart="88.20" departLane="best" departSpeed="max">
        <route edges="F2E2 E2E1 E1F1"/>
    </vehicle>
    <vehicle id="127" depart="88.90" departLane="best" departSpeed="max">
        <route edges="F2E2 E2D2 D2C2 C2C3 C3C4"/>
    </vehicle>
    <vehicle id="128" depart="89.60" departLane="best" departSpeed="max">
        <route edges="D1E1 E1E2 E2E3 E3E2"/>
    </vehicle>
    <vehicle id="129" depart="90.30" departLane="best" departSpeed="max">
        <route edges="C4C3 C3C2 C2C1 C1C0 C0B0 B0A0"/>
    </vehicle>
    <vehicle id="130" depart="91.00" departLane="best" departSpeed="max">
        <route edges="D2E2 E2F2 F2F1 F1F0 F0E0"/>
    </vehicle>
    <vehicle id="131" depart="91.70" departLane="best" departSpeed="max">
        <route edges="F0E0 E0D0 D0C0 C0B0 B0A0 A0A1 A1A2 A2A3 A3A4 A4A5 A5B5"/>
    </vehicle>
    <vehicle id="132" depart="92.40" departLane="best" departSpeed="max">
        <route edges="C2B2 B2B3 B3A3"/>
    </vehicle>
    <vehicle id="133" depart="93.10" departLane="best" departSpeed="max">
        <route edges="C0D0 D0E0 E0F0 F0F1 F1F2 F2F3 F3F4 F4E4"/>
    </vehicle>
    <vehicle id="134" depart="93.80" departLane="best" departSpeed="max">
        <route edges="C3C2 C2B2 B2B3 B3B4 B4B5 B5C5"/>
    </vehicle>
    <vehicle id="135" depart="94.50" departLane="best" departSpeed="max">
        <route edges="B4B3 B3C3 C3D3"/>
    </vehicle>
    <vehicle id="136" depart="95.20" departLane="best" departSpeed="max">
        <route edges="D5D4 D4D3 D3D2 D2D1 D1C1 C1B1"/>
    </vehicle>
    <vehicle id="137" depart="95.90" departLane="best" departSpeed="max">
        <route edges="B1C1 C1C2 C2C3 C3B3 B3A3"/>
    </vehicle>
    <vehicle id="138" depart="96.60" departLane="best" departSpeed="max">
        <route edges="B4A4 A4A3 A3A2 A2A1 A1B1 B1C1 C1D1 D1E1 E1F1 F1F2"/>
    </vehicle>
    <vehicle id="139" depart="97.30" departLane="best" departSpeed="max">
        <route edges="B1B0 B0C0 C0D0 D0D1 D1D2 D2E2 E2E1"/>
    </vehicle>
    <vehicle id="140" depart="98.00" departLane="best" departSpeed="max">
        <route edges="A4A5 A5B5 B5C5 C5D5 D5E5 E5E4 E4E3 E3E2"/>
    </vehicle>
    <vehicle id="141" depart="98.70" departLane="best" departSpeed="max">
        <route edges="B4A4 A4B4 B4C4 C4D4 D4E4 E4E3 E3D3"/>
    </vehicle>
    <vehicle id="142" depart="99.40" departLane="best" departSpeed="max">
        <route edges="C3C4 C4B4 B4B3 B3A3 A3A4"/>
    </vehicle>
    <vehicle id="143" depart="100.10" departLane="best" departSpeed="max">
        <route edges="A4A3 A3B3 B3C3 C3D3 D3E3 E3E4"/>
    </vehicle>
    <vehicle id="144" depart="100.80" departLane="best" departSpeed="max">
        <route edges="D1D2 D2D3 D3D4 D4D5 D5C5 C5C4"/>
    </vehicle>
    <vehicle id="145" depart="101.50" departLane="best" departSpeed="max">
        <route edges="C1C0 C0D0 D0E0 E0D0"/>
    </vehicle>
    <vehicle id="146" depart="102.20" departLane="best" departSpeed="max">
        <route edges="C5B5 B5A5 A5A4 A4A3 A3A2 A2B2"/>
    </vehicle>
    <vehicle id="147" depart="102.90" departLane="best" departSpeed="max">
        <route edges="D3D2 D2C2 C2B2 B2B3 B3B4 B4B5 B5C5"/>
    </vehicle>
    <vehicle id="148" depart="103.60" departLane="best" departSpeed="max">
        <route edges="E5D5 D5D4 D4D3 D3D2 D2D1 D1D2"/>
    </vehicle>
    <vehicle id="149" depart="104.30" departLane="best" departSpeed="max">
        <route edges="E2F2 F2F3 F3F4 F4F5 F5E5 E5D5 D5C5 C5B5 B5A5 A5A4"/>
    </vehicle>
    <vehicle id="150" depart="105.00" departLane="best" departSpeed="max">
        <route edges="E0F0 F0F1 F1F2 F2F3 F3E3 E3D3 D3D4"/>
    </vehicle>
    <vehicle id="151" depart="105.70" departLane="best" departSpeed="max">
        <route edges="E5E4 E4E3 E3E2 E2F2 F2F1 F1E1"/>
    </vehicle>
    <vehicle id="152" depart="106.40" departLane="best" departSpeed="max">
        <route edges="D1E1 E1E2 E2E3 E3D3 D3C3"/>
    </vehicle>
    <vehicle id="153" depart="107.10" departLane="best" departSpeed="max">
        <route edges="E2F2 F2F3 F3F4 F4E4 E4D4 D4C4 C4B4 B4A4"/>
    </vehicle>
    <vehicle id="154" depart="107.80" departLane="best" departSpeed="max">
        <route edges="D1D2 D2D3 D3E3 E3E2"/>
    </vehicle>
    <vehicle id="155" depart="108.50" departLane="best" departSpeed="max">
        <route edges="D3C3 C3C2 C2C1 C1D1 D1D2"/>
    </vehicle>
    <vehicle id="156" depart="109.20" departLane="best" departSpeed="max">
        <route edges="E5E4 E4F4 F4F5"/>
    </vehicle>
    <vehicle id="157" depart="109.90" departLane="best" departSpeed="max">
        <route edges="B4A4 A4A3 A3A2"/>
    </vehicle>
    <vehicle id="158" depart="110.60" departLane="best" departSpeed="max">
        <route edges="D3D4 D4C4 C4C3 C3C2 C2C1 C1C0 C0B0 B0B1"/>
    </vehicle>
    <vehicle id="159" depart="111.30" departLane="best" departSpeed="max">
        <route edges="F4F3 F3E3 E3D3 D3C3 C3C4 C4D4"/>
    </vehicle>
    <vehicle id="160" depart="112.00" departLane="best" departSpeed="max">
        <route edges="D1D0 D0D1 D1D2 D2D3 D3D4 D4E4 E4E3"/>
    </vehicle>
    <vehicle id="161" depart="112.70" departLane="best" departSpeed="max">
        <route edges="F0E0 E0D0 D0C0 C0B0 B0B1"/>
    </vehicle>
    <vehicle id="162" depart="113.40" departLane="best" departSpeed="max">
        <route edges="C4C3 C3C2 C2C1 C1B1 B1B2"/>
    </vehicle>
    <vehicle id="163" depart="114.10" departLane="best" departSpeed="max">
        <route edges="C4C5 C5B5 B5B4 B4A4 A4A5 A5B5"/>
    </vehicle>
    <vehicle id="164" depart="114.80" departLane="best" departSpeed="max">
        <route edges="F0F1 F1E1 E1D1 D1C1 C1C0"/>
    </vehicle>
    <vehicle id="165" depart="115.50" departLane="best" departSpeed="max">
        <route edges="C2C1 C1D1 D1E1 E1F1 F1F0"/>
    </vehicle>
    <vehicle id="166" depart="116.20" departLane="best" departSpeed="max">
        <route edges="E4E3 E3E2 E2E1 E1D1 D1C1 C1C0 C0D0"/>
    </vehicle>
    <vehicle id="167" depart="116.90" departLane="best" departSpeed="max">
        <route edges="C5D5 D5C5"/>
    </vehicle>
    <vehicle id="168" depart="117.60" departLane="best" departSpeed="max">
        <route edges="B1C1 C1C0 C0B0 B0A0"/>
    </vehicle>
    <vehicle id="169" depart="118.30" departLane="best" departSpeed="max">
        <route edges="E5E4 E4E3 E3E2 E2E1 E1D1 D1C1 C1B1 B1A1"/>
    </vehicle>
    <vehicle id="170" depart="119.00" departLane="best" departSpeed="max">
        <route edges="E0F0 F0F1 F1E1 E1F1"/>
    </vehicle>
    <vehicle id="171" depart="119.70" departLane="best" departSpeed="max">
        <route edges="D2E2 E2E1 E1D1 D1C1 C1B1"/>
    </vehicle>
    <vehicle id="172" depart="120.40" departLane="best" departSpeed="max">
        <route edges="E5E4 E4E3 E3E2"/>
    </vehicle>
    <vehicle id="173" depart="121.10" departLane="best" departSpeed="max">
        <route edges="A3A2 A2A1 A1B1 B1C1 C1D1 D1E1 E1F1 F1F0"/>
    </vehicle>
    <vehicle id="174" depart="121.80" departLane="best" departSpeed="max">
        <route edges="D4D3 D3C3 C3B3 B3B4 B4C4"/>
    </vehicle>
    <vehicle id="175" depart="122.50" departLane="best" departSpeed="max">
        <route edges="B1B0 B0A0 A0A1 A1A2 A2A3 A3A4 A4A3"/>
    </vehicle>
    <vehicle id="176" depart="123.20" departLane="best" departSpeed="max">
        <route edges="E4D4 D4D5 D5E5 E5D5"/>
    </vehicle>
    <vehicle id="177" depart="123.90" departLane="best" departSpeed="max">
        <route edges="C1B1 B1B2"/>
    </vehicle>
    <vehicle id="178" depart="124.60" departLane="best" departSpeed="max">
        <route edges="A3A2 A2B2 B2C2 C2C3 C3B3"/>
    </vehicle>
    <vehicle id="179" depart="125.30" departLane="best" departSpeed="max">
        <route edges="B5A5 A5A4 A4A3 A3A2 A2A3"/>
    </vehicle>
    <vehicle id="180" depart="126.00" departLane="best" departSpeed="max">
        <route edges="B5A5 A5A4 A4B4 B4C4 C4D4 D4E4 E4E3"/>
    </vehicle>
    <vehicle id="181" depart="126.70" departLane="best" departSpeed="max">
        <route edges="A2B2 B2C2 C2D2"/>
    </vehicle>
    <vehicle id="182" depart="127.40" departLane="best" departSpeed="max">
        <route edges="D0D1 D1C1 C1B1 B1A1"/>
    </vehicle>
    <vehicle id="183" depart="128.10" departLane="best" departSpeed="max">
        <route edges="A1B1 B1B2 B2B3 B3A3 A3A2"/>
    </vehicle>
    <vehicle id="184" depart="128.80" departLane="best" departSpeed="max">
        <route edges="B0B1 B1B2 B2B3 B3B4 B4C4 C4D4 D4E4 E4F4 F4F3"/>
    </vehicle>
    <vehicle id="185" depart="129.50" departLane="best" departSpeed="max">
        <route edges="E5F5 F5F4 F4F3 F3F2 F2F1 F1E1 E1E0 E0F0"/>
    </vehicle>
    <vehicle id="186" depart="130.20" departLane="best" departSpeed="max">
        <route edges="F1F0 F0E0 E0D0 D0C0 C0C1"/>
    </vehicle>
    <vehicle id="187" depart="130.90" departLane="best" departSpeed="max">
        <route edges="B3B4 B4C4 C4D4 D4E4 E4F4 F4F3 F3F2 F2F1 F1F0 F0E0"/>
    </vehicle>
    <vehicle id="188" depart="131.60" departLane="best" departSpeed="max">
        <route edges="D3D2 D2E2 E2F2 F2F1"/>
    </vehicle>
    <vehicle id="189" depart="132.30" departLane="best" departSpeed="max">
        <route edges="C1C2 C2C3 C3B3"/>
    </vehicle>
    <vehicle id="190" depart="133.00" departLane="best" departSpeed="max">
        <route edges="E1E0 E0F0 F0F1"/>
    </vehicle>
    <vehicle id="191" depart="133.70" departLane="best" departSpeed="max">
        <route edges="B1A1 A1A2 A2B2 B2B3 B3B4 B4A4"/>
    </vehicle>
    <vehicle id="192" depart="134.40" departLane="best" departSpeed="max">
        <route edges="A0B0 B0C0 C0D0 D0D1 D1D2 D2C2"/>
    </vehicle>
    <vehicle id="193" depart="135.10" departLane="best" departSpeed="max">
        <route edges="F2F1 F1E1 E1E2 E2D2 D2D1"/>
    </vehicle>
    <vehicle id="194" depart="135.80" departLane="best" departSpeed="max">
        <route edges="B0B1 B1C1 C1D1 D1E1 E1E0 E0D0"/>
    </vehicle>
    <vehicle id="195" depart="136.50" departLane="best" departSpeed="max">
        <route edges="D4D5 D5C5 C5B5 B5B4 B4A4 A4A5"/>
    </vehicle>
    <vehicle id="196" depart="137.20" departLane="best" departSpeed="max">
        <route edges="F2E2 E2D2 D2D3 D3D4 D4D5 D5C5"/>
    </vehicle>
    <vehicle id="197" depart="137.90" departLane="best" departSpeed="max">
        <route edges="C5C4 C4C3 C3C2 C2C1 C1B1"/>
    </vehicle>
    <vehicle id="198" depart="138.60" departLane="best" departSpeed="max">
        <route edges="B1A1 A1A2 A2A3 A3A4 A4B4 B4C4 C4D4"/>
    </vehicle>
    <vehicle id="199" depart="139.30" departLane="best" departSpeed="max">
        <route edges="C1C2 C2C3 C3B3 B3A3"/>
    </vehicle>
    <vehicle id="200" depart="140.00" departLane="best" departSpeed="max">
        <route edges="D4D5 D5C5"/>
    </vehicle>
    <vehicle id="201" depart="140.70" departLane="best" departSpeed="max">
        <route edges="F3F4 F4F3"/>
    </vehicle>
    <vehicle id="202" depart="141.40" departLane="best" departSpeed="max">