<?xml version="1.0" encoding="UTF-8"?>

<!-- generated on 2025-08-15 17:41:47 by Eclipse SUMO netedit Version 1.19.0
-->

<routes xmlns:xsi="http://www.w3.org/2001/XMLSchema-instance" xsi:noNamespaceSchemaLocation="http://sumo.dlr.de/xsd/routes_file.xsd">
    <!-- Vehicles, persons and containers (sorted by depart) -->
    <flow id="veh1" begin="0.00" from="-E15" to="-E7" via="-E17 E16" end="3600.00" vehsPerHour="1800"/>
    <flow id="veh2" begin="0.00" color="green" from="-E8" to="-E7" end="3600.00" vehsPerHour="1800"/>
    <flow id="veh3" begin="0.00" color="magenta" from="-E15" to="E2" end="3600.00" vehsPerHour="1800"/>
    <flow id="veh4" begin="0.00" color="red" from="E12" to="-E3" via="E17" end="3600.00" vehsPerHour="1800"/>
    <flow id="veh5" begin="0.00" color="0,0,128" from="-E14" to="-E5" via="-E16" end="3600.00" vehsPerHour="1800"/>
    <flow id="veh6" begin="0.00" color="128,0,128" from="E3" to="E14" via="-E17 E16" end="3600.00" vehsPerHour="1800"/>
    <flow id="veh7" begin="0.00" color="cyan" from="E7" to="-E5" via="-E16" end="3600.00" vehsPerHour="1800"/>
</routes>
