<?xml version="1.0" encoding="UTF-8"?>

<!-- generated on 2025-08-15 17:41:52 by Eclipse SUMO netedit Version 1.19.0
<configuration xmlns:xsi="http://www.w3.org/2001/XMLSchema-instance" xsi:noNamespaceSchemaLocation="http://sumo.dlr.de/xsd/neteditConfiguration.xsd">

    <input>
        <sumocfg-file value="C:\Users\oswal\Desktop\ITLA\IA Distribuida\sumo-federado\arista 4\4_arista_simulation.sumocfg"/>
        <route-files value="C:\Users\oswal\Desktop\ITLA\IA Distribuida\sumo-federado\arista 4\4_arista_simulation.rou.xml"/>
        <sumo-net-file value="C:\Users\oswal\Desktop\ITLA\IA Distribuida\sumo-federado\arista 4\4_arista_simulation.net.xml"/>
    </input>

    <output>
        <output-file value="C:\Users\oswal\Desktop\ITLA\IA Distribuida\sumo-federado\arista 4\4_arista_simulation.net.xml"/>
    </output>

    <processing>
        <geometry.min-radius.fix.railways value="false"/>
        <geometry.max-grade.fix value="false"/>
        <offset.disable-normalization value="true"/>
        <lefthand value="0"/>
    </processing>

    <junctions>
        <no-turnarounds value="true"/>
        <junctions.corner-detail value="5"/>
        <junctions.limit-turn-speed value="5.50"/>
        <rectangular-lane-cut value="0"/>
    </junctions>

    <pedestrian>
        <walkingareas value="0"/>
    </pedestrian>

</configuration>
-->

<net version="1.16" junctionCornerDetail="5" limitTurnSpeed="5.50" xmlns:xsi="http://www.w3.org/2001/XMLSchema-instance" xsi:noNamespaceSchemaLocation="http://sumo.dlr.de/xsd/net_file.xsd">

    <location netOffset="0.00,0.00" convBoundary="-100.00,-100.00,300.00,100.00" origBoundary="-10000000000.00,-10000000000.00,10000000000.00,10000000000.00" projParameter="!"/>

    <edge id=":J3_0" function="internal">
        <lane id=":J3_0_0" index="0" speed="6.51" length="9.03" shape="-4.80,10.40 -5.15,7.95 -6.20,6.20 -7.95,5.15 -10.40,4.80"/>
    </edge>
    <edge id=":J3_1" function="internal">
        <lane id=":J3_1_0" index="0" speed="13.89" length="20.80" shape="-4.80,10.40 -4.80,-10.40"/>
    </edge>
    <edge id=":J3_2" function="internal">
        <lane id=":J3_2_0" index="0" speed="9.26" length="10.42" shape="-1.60,10.40 -0.85,5.15 1.40,1.40 2.04,1.02"/>
    </edge>
    <edge id=":J3_12" function="internal">
        <lane id=":J3_12_0" index="0" speed="9.26" length="8.93" shape="2.04,1.02 5.15,-0.85 10.40,-1.60"/>
    </edge>
    <edge id=":J3_3" function="internal">
        <lane id=":J3_3_0" index="0" speed="6.51" length="9.03" shape="10.40,4.80 7.95,5.15 6.20,6.20 5.15,7.95 4.80,10.40"/>
    </edge>
    <edge id=":J3_4" function="internal">
        <lane id=":J3_4_0" index="0" speed="13.89" length="20.80" shape="10.40,4.80 -10.40,4.80"/>
    </edge>
    <edge id=":J3_5" function="internal">
        <lane id=":J3_5_0" index="0" speed="9.26" length="5.99" shape="10.40,1.60 5.15,0.85 4.56,0.49"/>
    </edge>
    <edge id=":J3_13" function="internal">
        <lane id=":J3_13_0" index="0" speed="9.26" length="13.36" shape="4.56,0.49 1.40,-1.40 -0.85,-5.15 -1.60,-10.40"/>
    </edge>
    <edge id=":J3_6" function="internal">
        <lane id=":J3_6_0" index="0" speed="6.51" length="9.03" shape="4.80,-10.40 5.15,-7.95 6.20,-6.20 7.95,-5.15 10.40,-4.80"/>
    </edge>
    <edge id=":J3_7" function="internal">
        <lane id=":J3_7_0" index="0" speed="13.89" length="20.80" shape="4.80,-10.40 4.80,10.40"/>
    </edge>
    <edge id=":J3_8" function="internal">
        <lane id=":J3_8_0" index="0" speed="9.26" length="10.42" shape="1.60,-10.40 0.85,-5.15 -1.40,-1.40 -2.04,-1.02"/>
    </edge>
    <edge id=":J3_14" function="internal">
        <lane id=":J3_14_0" index="0" speed="9.26" length="8.93" shape="-2.04,-1.02 -5.15,0.85 -10.40,1.60"/>
    </edge>
    <edge id=":J3_9" function="internal">
        <lane id=":J3_9_0" index="0" speed="6.51" length="9.03" shape="-10.40,-4.80 -7.95,-5.15 -6.20,-6.20 -5.15,-7.95 -4.80,-10.40"/>
    </edge>
    <edge id=":J3_10" function="internal">
        <lane id=":J3_10_0" index="0" speed="13.89" length="21.12" shape="-10.40,-4.80 -4.34,-4.30 0.00,-3.20 4.34,-2.10 10.40,-1.60"/>
    </edge>
    <edge id=":J3_11" function="internal">
        <lane id=":J3_11_0" index="0" speed="9.26" length="10.42" shape="-10.40,-1.60 -5.15,-0.85 -1.40,1.40 -1.02,2.04"/>
    </edge>
    <edge id=":J3_15" function="internal">
        <lane id=":J3_15_0" index="0" speed="9.26" length="8.93" shape="-1.02,2.04 0.85,5.15 1.60,10.40"/>
    </edge>
    <edge id=":J4_0" function="internal">
        <lane id=":J4_0_0" index="0" speed="7.33" length="11.73" shape="95.20,10.40 94.85,6.55 93.80,3.80 92.05,2.15 89.60,1.60"/>
    </edge>
    <edge id=":J4_1" function="internal">
        <lane id=":J4_1_0" index="0" speed="13.89" length="20.80" shape="95.20,10.40 95.20,-10.40"/>
    </edge>
    <edge id=":J4_2" function="internal">
        <lane id=":J4_2_0" index="0" speed="9.26" length="10.42" shape="98.40,10.40 99.15,5.15 101.40,1.40 102.04,1.02"/>
    </edge>
    <edge id=":J4_12" function="internal">
        <lane id=":J4_12_0" index="0" speed="9.26" length="8.93" shape="102.04,1.02 105.15,-0.85 110.40,-1.60"/>
    </edge>
    <edge id=":J4_3" function="internal">
        <lane id=":J4_3_0" index="0" speed="6.51" length="9.03" shape="110.40,4.80 107.95,5.15 106.20,6.20 105.15,7.95 104.80,10.40"/>
    </edge>
    <edge id=":J4_4" function="internal">
        <lane id=":J4_4_0" index="0" speed="13.89" length="20.80" shape="110.40,4.80 89.60,4.80"/>
    </edge>
    <edge id=":J4_5" function="internal">
        <lane id=":J4_5_0" index="0" speed="9.26" length="10.42" shape="110.40,1.60 105.15,0.85 101.40,-1.40 101.02,-2.04"/>
    </edge>
    <edge id=":J4_13" function="internal">
        <lane id=":J4_13_0" index="0" speed="9.26" length="8.93" shape="101.02,-2.04 99.15,-5.15 98.40,-10.40"/>
    </edge>
    <edge id=":J4_6" function="internal">
        <lane id=":J4_6_0" index="0" speed="7.33" length="11.73" shape="104.80,-10.40 105.15,-6.55 106.20,-3.80 107.95,-2.15 110.40,-1.60"/>
    </edge>
    <edge id=":J4_7" function="internal">
        <lane id=":J4_7_0" index="0" speed="13.89" length="20.80" shape="104.80,-10.40 104.80,10.40"/>
    </edge>
    <edge id=":J4_8" function="internal">
        <lane id=":J4_8_0" index="0" speed="9.26" length="10.42" shape="101.60,-10.40 100.85,-5.15 98.60,-1.40 97.96,-1.02"/>
    </edge>
    <edge id=":J4_14" function="internal">
        <lane id=":J4_14_0" index="0" speed="9.26" length="8.93" shape="97.96,-1.02 94.85,0.85 89.60,1.60"/>
    </edge>
    <edge id=":J4_9" function="internal">
        <lane id=":J4_9_0" index="0" speed="6.51" length="9.03" shape="89.60,-4.80 92.05,-5.15 93.80,-6.20 94.85,-7.95 95.20,-10.40"/>
    </edge>
    <edge id=":J4_10" function="internal">
        <lane id=":J4_10_0" index="0" speed="13.89" length="20.80" shape="89.60,-4.80 110.40,-4.80"/>
    </edge>
    <edge id=":J4_11" function="internal">
        <lane id=":J4_11_0" index="0" speed="9.26" length="10.42" shape="89.60,-1.60 94.85,-0.85 98.60,1.40 98.98,2.04"/>
    </edge>
    <edge id=":J4_15" function="internal">
        <lane id=":J4_15_0" index="0" speed="9.26" length="8.93" shape="98.98,2.04 100.85,5.15 101.60,10.40"/>
    </edge>
    <edge id=":J7_0" function="internal">
        <lane id=":J7_0_0" index="0" speed="7.33" length="11.73" shape="195.20,10.40 194.85,6.55 193.80,3.80 192.05,2.15 189.60,1.60"/>
    </edge>
    <edge id=":J7_1" function="internal">
        <lane id=":J7_1_0" index="0" speed="13.89" length="20.80" shape="195.20,10.40 195.20,-10.40"/>
    </edge>
    <edge id=":J7_2" function="internal">
        <lane id=":J7_2_0" index="0" speed="9.26" length="10.42" shape="198.40,10.40 199.15,5.15 201.40,1.40 202.04,1.02"/>
    </edge>
    <edge id=":J7_12" function="internal">
        <lane id=":J7_12_0" index="0" speed="9.26" length="8.93" shape="202.04,1.02 205.15,-0.85 210.40,-1.60"/>
    </edge>
    <edge id=":J7_3" function="internal">
        <lane id=":J7_3_0" index="0" speed="6.51" length="9.03" shape="210.40,4.80 207.95,5.15 206.20,6.20 205.15,7.95 204.80,10.40"/>
    </edge>
    <edge id=":J7_4" function="internal">
        <lane id=":J7_4_0" index="0" speed="13.89" length="21.12" shape="210.40,4.80 204.34,4.30 200.00,3.20 195.66,2.10 189.60,1.60"/>
    </edge>
    <edge id=":J7_5" function="internal">
        <lane id=":J7_5_0" index="0" speed="9.26" length="10.42" shape="210.40,1.60 205.15,0.85 201.40,-1.40 201.02,-2.04"/>
    </edge>
    <edge id=":J7_13" function="internal">
        <lane id=":J7_13_0" index="0" speed="9.26" length="8.93" shape="201.02,-2.04 199.15,-5.15 198.40,-10.40"/>
    </edge>
    <edge id=":J7_6" function="internal">
        <lane id=":J7_6_0" index="0" speed="6.51" length="9.03" shape="204.80,-10.40 205.15,-7.95 206.20,-6.20 207.95,-5.15 210.40,-4.80"/>
    </edge>
    <edge id=":J7_7" function="internal">
        <lane id=":J7_7_0" index="0" speed="13.89" length="20.80" shape="204.80,-10.40 204.80,10.40"/>
    </edge>
    <edge id=":J7_8" function="internal">
        <lane id=":J7_8_0" index="0" speed="9.26" length="10.42" shape="201.60,-10.40 200.85,-5.15 198.60,-1.40 197.96,-1.02"/>
    </edge>
    <edge id=":J7_14" function="internal">
        <lane id=":J7_14_0" index="0" speed="9.26" length="8.93" shape="197.96,-1.02 194.85,0.85 189.60,1.60"/>
    </edge>
    <edge id=":J7_9" function="internal">
        <lane id=":J7_9_0" index="0" speed="6.51" length="9.03" shape="189.60,-4.80 192.05,-5.15 193.80,-6.20 194.85,-7.95 195.20,-10.40"/>
    </edge>
    <edge id=":J7_10" function="internal">
        <lane id=":J7_10_0" index="0" speed="13.89" length="20.80" shape="189.60,-4.80 210.40,-4.80"/>
    </edge>
    <edge id=":J7_11" function="internal">
        <lane id=":J7_11_0" index="0" speed="9.26" length="5.99" shape="189.60,-1.60 194.85,-0.85 195.44,-0.49"/>
    </edge>
    <edge id=":J7_15" function="internal">
        <lane id=":J7_15_0" index="0" speed="9.26" length="13.36" shape="195.44,-0.49 198.60,1.40 200.85,5.15 201.60,10.40"/>
    </edge>

    <edge id="-E12" from="J4" to="J14" priority="-1">
        <lane id="-E12_0" index="0" speed="13.89" length="89.60" shape="95.20,-10.40 95.20,-100.00"/>
        <lane id="-E12_1" index="1" speed="13.89" length="89.60" shape="98.40,-10.40 98.40,-100.00"/>
    </edge>
    <edge id="-E14" from="J16" to="J7" priority="-1">
        <lane id="-E14_0" index="0" speed="13.89" length="89.60" shape="195.20,100.00 195.20,10.40"/>
        <lane id="-E14_1" index="1" speed="13.89" length="89.60" shape="198.40,100.00 198.40,10.40"/>
    </edge>
    <edge id="-E15" from="J17" to="J3" priority="-1">
        <lane id="-E15_0" index="0" speed="13.89" length="89.60" shape="-4.80,100.00 -4.80,10.40"/>
        <lane id="-E15_1" index="1" speed="13.89" length="89.60" shape="-1.60,100.00 -1.60,10.40"/>
    </edge>
    <edge id="-E16" from="J7" to="J4" priority="-1">
        <lane id="-E16_0" index="0" speed="13.89" length="79.20" shape="189.60,4.80 110.40,4.80"/>
        <lane id="-E16_1" index="1" speed="13.89" length="79.20" shape="189.60,1.60 110.40,1.60"/>
    </edge>
    <edge id="-E17" from="J3" to="J4" priority="-1">
        <lane id="-E17_0" index="0" speed="13.89" length="79.20" shape="10.40,-4.80 89.60,-4.80"/>
        <lane id="-E17_1" index="1" speed="13.89" length="79.20" shape="10.40,-1.60 89.60,-1.60"/>
    </edge>
    <edge id="-E2" from="J5" to="J3" priority="-1">
        <lane id="-E2_0" index="0" speed="13.89" length="89.60" shape="4.80,-100.00 4.80,-10.40"/>
        <lane id="-E2_1" index="1" speed="13.89" length="89.60" shape="1.60,-100.00 1.60,-10.40"/>
    </edge>
    <edge id="-E3" from="J3" to="J6" priority="-1">
        <lane id="-E3_0" index="0" speed="13.89" length="89.60" shape="-10.40,4.80 -100.00,4.80"/>
        <lane id="-E3_1" index="1" speed="13.89" length="89.60" shape="-10.40,1.60 -100.00,1.60"/>
    </edge>
    <edge id="-E5" from="J4" to="J8" priority="-1">
        <lane id="-E5_0" index="0" speed="13.89" length="89.60" shape="104.80,10.40 104.80,100.00"/>
        <lane id="-E5_1" index="1" speed="13.89" length="89.60" shape="101.60,10.40 101.60,100.00"/>
    </edge>
    <edge id="-E7" from="J7" to="J9" priority="-1">
        <lane id="-E7_0" index="0" speed="13.89" length="89.60" shape="210.40,-4.80 300.00,-4.80"/>
        <lane id="-E7_1" index="1" speed="13.89" length="89.60" shape="210.40,-1.60 300.00,-1.60"/>
    </edge>
    <edge id="-E8" from="J10" to="J7" priority="-1">
        <lane id="-E8_0" index="0" speed="13.89" length="89.60" shape="204.80,-100.00 204.80,-10.40"/>
        <lane id="-E8_1" index="1" speed="13.89" length="89.60" shape="201.60,-100.00 201.60,-10.40"/>
    </edge>
    <edge id="E12" from="J14" to="J4" priority="-1">
        <lane id="E12_0" index="0" speed="13.89" length="89.60" shape="104.80,-100.00 104.80,-10.40"/>
        <lane id="E12_1" index="1" speed="13.89" length="89.60" shape="101.60,-100.00 101.60,-10.40"/>
    </edge>
    <edge id="E14" from="J7" to="J16" priority="-1">
        <lane id="E14_0" index="0" speed="13.89" length="89.60" shape="204.80,10.40 204.80,100.00"/>
        <lane id="E14_1" index="1" speed="13.89" length="89.60" shape="201.60,10.40 201.60,100.00"/>
    </edge>
    <edge id="E15" from="J3" to="J17" priority="-1">
        <lane id="E15_0" index="0" speed="13.89" length="89.60" shape="4.80,10.40 4.80,100.00"/>
        <lane id="E15_1" index="1" speed="13.89" length="89.60" shape="1.60,10.40 1.60,100.00"/>
    </edge>
    <edge id="E16" from="J4" to="J7" priority="-1">
        <lane id="E16_0" index="0" speed="13.89" length="79.20" shape="110.40,-4.80 189.60,-4.80"/>
        <lane id="E16_1" index="1" speed="13.89" length="79.20" shape="110.40,-1.60 189.60,-1.60"/>
    </edge>
    <edge id="E17" from="J4" to="J3" priority="-1">
        <lane id="E17_0" index="0" speed="13.89" length="79.20" shape="89.60,4.80 10.40,4.80"/>
        <lane id="E17_1" index="1" speed="13.89" length="79.20" shape="89.60,1.60 10.40,1.60"/>
    </edge>
    <edge id="E2" from="J3" to="J5" priority="-1">
        <lane id="E2_0" index="0" speed="13.89" length="89.60" shape="-4.80,-10.40 -4.80,-100.00"/>
        <lane id="E2_1" index="1" speed="13.89" length="89.60" shape="-1.60,-10.40 -1.60,-100.00"/>
    </edge>
    <edge id="E3" from="J6" to="J3" priority="-1">
        <lane id="E3_0" index="0" speed="13.89" length="89.60" shape="-100.00,-4.80 -10.40,-4.80"/>
        <lane id="E3_1" index="1" speed="13.89" length="89.60" shape="-100.00,-1.60 -10.40,-1.60"/>
    </edge>
    <edge id="E5" from="J8" to="J4" priority="-1">
        <lane id="E5_0" index="0" speed="13.89" length="89.60" shape="95.20,100.00 95.20,10.40"/>
        <lane id="E5_1" index="1" speed="13.89" length="89.60" shape="98.40,100.00 98.40,10.40"/>
    </edge>
    <edge id="E7" from="J9" to="J7" priority="-1">
        <lane id="E7_0" index="0" speed="13.89" length="89.60" shape="300.00,4.80 210.40,4.80"/>
        <lane id="E7_1" index="1" speed="13.89" length="89.60" shape="300.00,1.60 210.40,1.60"/>
    </edge>
    <edge id="E8" from="J7" to="J10" priority="-1">
        <lane id="E8_0" index="0" speed="13.89" length="89.60" shape="195.20,-10.40 195.20,-100.00"/>
        <lane id="E8_1" index="1" speed="13.89" length="89.60" shape="198.40,-10.40 198.40,-100.00"/>
    </edge>

    <tlLogic id="J3" type="static" programID="0" offset="0">
        <phase duration="33" state="GGgrrrGGgrrr"/>
        <phase duration="3"  state="yygrrryygrrr"/>
        <phase duration="6"  state="rrGrrrrrGrrr"/>
        <phase duration="3"  state="rryrrrrryrrr"/>
        <phase duration="33" state="rrrGGgrrrGGg"/>
        <phase duration="3"  state="rrryygrrryyg"/>
        <phase duration="6"  state="rrrrrGrrrrrG"/>
        <phase duration="3"  state="rrrrryrrrrry"/>
    </tlLogic>
    <tlLogic id="J4" type="static" programID="0" offset="0">
        <phase duration="33" state="GGgrrrGGgrrr"/>
        <phase duration="3"  state="yygrrryygrrr"/>
        <phase duration="6"  state="rrGrrrrrGrrr"/>
        <phase duration="3"  state="rryrrrrryrrr"/>
        <phase duration="33" state="rrrGGgrrrGGg"/>
        <phase duration="3"  state="rrryygrrryyg"/>
        <phase duration="6"  state="rrrrrGrrrrrG"/>
        <phase duration="3"  state="rrrrryrrrrry"/>
    </tlLogic>
    <tlLogic id="J7" type="static" programID="0" offset="0">
        <phase duration="33" state="GGgrrrGGgrrr"/>
        <phase duration="3"  state="yygrrryygrrr"/>
        <phase duration="6"  state="rrGrrrrrGrrr"/>
        <phase duration="3"  state="rryrrrrryrrr"/>
        <phase duration="33" state="rrrGGgrrrGGg"/>
        <phase duration="3"  state="rrryygrrryyg"/>
        <phase duration="6"  state="rrrrrGrrrrrG"/>
        <phase duration="3"  state="rrrrryrrrrry"/>
    </tlLogic>

    <junction id="J10" type="dead_end" x="200.00" y="-100.00" incLanes="E8_0 E8_1" intLanes="" shape="200.00,-100.00 193.60,-100.00 200.00,-100.00"/>
    <junction id="J14" type="dead_end" x="100.00" y="-100.00" incLanes="-E12_0 -E12_1" intLanes="" shape="100.00,-100.00 93.60,-100.00 100.00,-100.00"/>
    <junction id="J16" type="dead_end" x="200.00" y="100.00" incLanes="E14_0 E14_1" intLanes="" shape="200.00,100.00 206.40,100.00 200.00,100.00"/>
    <junction id="J17" type="dead_end" x="0.00" y="100.00" incLanes="E15_0 E15_1" intLanes="" shape="0.00,100.00 6.40,100.00 0.00,100.00"/>
    <junction id="J3" type="traffic_light" x="0.00" y="0.00" incLanes="-E15_0 -E15_1 E17_0 E17_1 -E2_0 -E2_1 E3_0 E3_1" intLanes=":J3_0_0 :J3_1_0 :J3_12_0 :J3_3_0 :J3_4_0 :J3_13_0 :J3_6_0 :J3_7_0 :J3_14_0 :J3_9_0 :J3_10_0 :J3_15_0" shape="-6.40,10.40 6.40,10.40 6.84,8.18 7.40,7.40 8.18,6.84 9.18,6.51 10.40,6.40 10.40,-6.40 8.18,-6.84 7.40,-7.40 6.84,-8.18 6.51,-9.18 6.40,-10.40 -6.40,-10.40 -6.84,-8.18 -7.40,-7.40 -8.18,-6.84 -9.18,-6.51 -10.40,-6.40 -10.40,6.40 -8.18,6.84 -7.40,7.40 -6.84,8.18 -6.51,9.18">
        <request index="0"  response="000000000000" foes="000000010000" cont="0"/>
        <request index="1"  response="100000000000" foes="111100010000" cont="0"/>
        <request index="2"  response="100010100000" foes="110010110000" cont="1"/>
        <request index="3"  response="000010000000" foes="000010000000" cont="0"/>
        <request index="4"  response="000010000111" foes="100010000111" cont="0"/>
        <request index="5"  response="010110000100" foes="010110000100" cont="1"/>
        <request index="6"  response="000000000000" foes="000000000000" cont="0"/>
        <request index="7"  response="000000100000" foes="010000111100" cont="0"/>
        <request index="8"  response="100000100010" foes="110000100010" cont="1"/>
        <request index="9"  response="000000000010" foes="000000000010" cont="0"/>
        <request index="10" response="000110000110" foes="000110100110" cont="0"/>
        <request index="11" response="000100010110" foes="000100010110" cont="1"/>
    </junction>
    <junction id="J4" type="traffic_light" x="100.00" y="0.00" incLanes="E5_0 E5_1 -E16_0 -E16_1 E12_0 E12_1 -E17_0 -E17_1" intLanes=":J4_0_0 :J4_1_0 :J4_12_0 :J4_3_0 :J4_4_0 :J4_13_0 :J4_6_0 :J4_7_0 :J4_14_0 :J4_9_0 :J4_10_0 :J4_15_0" shape="93.60,10.40 106.40,10.40 106.84,8.18 107.40,7.40 108.18,6.84 109.18,6.51 110.40,6.40 110.40,-6.40 108.18,-6.84 107.40,-7.40 106.84,-8.18 106.51,-9.18 106.40,-10.40 93.60,-10.40 93.16,-8.18 92.60,-7.40 91.82,-6.84 90.82,-6.51 89.60,-6.40 89.60,6.40 91.82,6.84 92.60,7.40 93.16,8.18 93.49,9.18">
        <request index="0"  response="000000000000" foes="000100010000" cont="0"/>
        <request index="1"  response="100000000000" foes="111100010000" cont="0"/>
        <request index="2"  response="100011100000" foes="100011110000" cont="1"/>
        <request index="3"  response="000010000000" foes="000010000000" cont="0"/>
        <request index="4"  response="000010000111" foes="100010000111" cont="0"/>
        <request index="5"  response="010110000100" foes="010110000100" cont="1"/>
        <request index="6"  response="000000000000" foes="010000000100" cont="0"/>
        <request index="7"  response="000000100000" foes="010000111100" cont="0"/>
        <request index="8"  response="100000100011" foes="110000100011" cont="1"/>
        <request index="9"  response="000000000010" foes="000000000010" cont="0"/>
        <request index="10" response="000111000010" foes="000111100010" cont="0"/>
        <request index="11" response="000100010110" foes="000100010110" cont="1"/>
    </junction>
    <junction id="J5" type="dead_end" x="0.00" y="-100.00" incLanes="E2_0 E2_1" intLanes="" shape="0.00,-100.00 -6.40,-100.00 0.00,-100.00"/>
    <junction id="J6" type="dead_end" x="-100.00" y="0.00" incLanes="-E3_0 -E3_1" intLanes="" shape="-100.00,0.00 -100.00,6.40 -100.00,0.00"/>
    <junction id="J7" type="traffic_light" x="200.00" y="0.00" incLanes="-E14_0 -E14_1 E7_0 E7_1 -E8_0 -E8_1 E16_0 E16_1" intLanes=":J7_0_0 :J7_1_0 :J7_12_0 :J7_3_0 :J7_4_0 :J7_13_0 :J7_6_0 :J7_7_0 :J7_14_0 :J7_9_0 :J7_10_0 :J7_15_0" shape="193.60,10.40 206.40,10.40 206.84,8.18 207.40,7.40 208.18,6.84 209.18,6.51 210.40,6.40 210.40,-6.40 208.18,-6.84 207.40,-7.40 206.84,-8.18 206.51,-9.18 206.40,-10.40 193.60,-10.40 193.16,-8.18 192.60,-7.40 191.82,-6.84 190.82,-6.51 189.60,-6.40 189.60,6.40 191.82,6.84 192.60,7.40 193.16,8.18 193.49,9.18">
        <request index="0"  response="000000000000" foes="000100010000" cont="0"/>
        <request index="1"  response="100000000000" foes="111100010000" cont="0"/>
        <request index="2"  response="100010100000" foes="100010110000" cont="1"/>
        <request index="3"  response="000010000000" foes="000010000000" cont="0"/>
        <request index="4"  response="000110000111" foes="100110000111" cont="0"/>
        <request index="5"  response="010110000100" foes="010110000100" cont="1"/>
        <request index="6"  response="000000000000" foes="010000000000" cont="0"/>
        <request index="7"  response="000000100000" foes="010000111100" cont="0"/>
        <request index="8"  response="100000100011" foes="110000110011" cont="1"/>
        <request index="9"  response="000000000010" foes="000000000010" cont="0"/>
        <request index="10" response="000111000010" foes="000111100010" cont="0"/>
        <request index="11" response="000100010110" foes="000100010110" cont="1"/>
    </junction>
    <junction id="J8" type="dead_end" x="100.00" y="100.00" incLanes="-E5_0 -E5_1" intLanes="" shape="100.00,100.00 106.40,100.00 100.00,100.00"/>
    <junction id="J9" type="dead_end" x="300.00" y="0.00" incLanes="-E7_0 -E7_1" intLanes="" shape="300.00,0.00 300.00,-6.40 300.00,0.00"/>

    <junction id=":J3_12_0" type="internal" x="2.04" y="1.02" incLanes=":J3_2_0 -E2_0" intLanes=":J3_4_0 :J3_5_0 :J3_6_0 :J3_7_0 :J3_10_0 :J3_11_0"/>
    <junction id=":J3_13_0" type="internal" x="4.56" y="0.49" incLanes=":J3_5_0 E3_0" intLanes=":J3_1_0 :J3_2_0 :J3_7_0 :J3_8_0 :J3_9_0 :J3_10_0"/>
    <junction id=":J3_14_0" type="internal" x="-2.04" y="-1.02" incLanes=":J3_8_0 -E15_0" intLanes=":J3_0_0 :J3_1_0 :J3_4_0 :J3_5_0 :J3_10_0 :J3_11_0"/>
    <junction id=":J3_15_0" type="internal" x="-1.02" y="2.04" incLanes=":J3_11_0 E17_0" intLanes=":J3_1_0 :J3_2_0 :J3_3_0 :J3_4_0 :J3_7_0 :J3_8_0"/>
    <junction id=":J4_12_0" type="internal" x="102.04" y="1.02" incLanes=":J4_2_0 E12_0" intLanes=":J4_4_0 :J4_5_0 :J4_6_0 :J4_7_0 :J4_10_0 :J4_11_0"/>
    <junction id=":J4_13_0" type="internal" x="101.02" y="-2.04" incLanes=":J4_5_0 -E17_0" intLanes=":J4_1_0 :J4_2_0 :J4_7_0 :J4_8_0 :J4_9_0 :J4_10_0"/>
    <junction id=":J4_14_0" type="internal" x="97.96" y="-1.02" incLanes=":J4_8_0 E5_0" intLanes=":J4_0_0 :J4_1_0 :J4_4_0 :J4_5_0 :J4_10_0 :J4_11_0"/>
    <junction id=":J4_15_0" type="internal" x="98.98" y="2.04" incLanes=":J4_11_0 -E16_0" intLanes=":J4_1_0 :J4_2_0 :J4_3_0 :J4_4_0 :J4_7_0 :J4_8_0"/>
    <junction id=":J7_12_0" type="internal" x="202.04" y="1.02" incLanes=":J7_2_0 -E8_0" intLanes=":J7_4_0 :J7_5_0 :J7_6_0 :J7_7_0 :J7_10_0 :J7_11_0"/>
    <junction id=":J7_13_0" type="internal" x="201.02" y="-2.04" incLanes=":J7_5_0 E16_0" intLanes=":J7_1_0 :J7_2_0 :J7_7_0 :J7_8_0 :J7_9_0 :J7_10_0"/>
    <junction id=":J7_14_0" type="internal" x="197.96" y="-1.02" incLanes=":J7_8_0 -E14_0" intLanes=":J7_0_0 :J7_1_0 :J7_4_0 :J7_5_0 :J7_10_0 :J7_11_0"/>
    <junction id=":J7_15_0" type="internal" x="195.44" y="-0.49" incLanes=":J7_11_0 E7_0" intLanes=":J7_1_0 :J7_2_0 :J7_3_0 :J7_4_0 :J7_7_0 :J7_8_0"/>

    <connection from="-E14" to="-E16" fromLane="0" toLane="1" via=":J7_0_0" tl="J7" linkIndex="0" dir="r" state="O"/>
    <connection from="-E14" to="E8" fromLane="0" toLane="0" via=":J7_1_0" tl="J7" linkIndex="1" dir="s" state="O"/>
    <connection from="-E14" to="-E7" fromLane="1" toLane="1" via=":J7_2_0" tl="J7" linkIndex="2" dir="l" state="o"/>
    <connection from="-E15" to="-E3" fromLane="0" toLane="0" via=":J3_0_0" tl="J3" linkIndex="0" dir="r" state="O"/>
    <connection from="-E15" to="E2" fromLane="0" toLane="0" via=":J3_1_0" tl="J3" linkIndex="1" dir="s" state="O"/>
    <connection from="-E15" to="-E17" fromLane="1" toLane="1" via=":J3_2_0" tl="J3" linkIndex="2" dir="l" state="o"/>
    <connection from="-E16" to="-E5" fromLane="0" toLane="0" via=":J4_3_0" tl="J4" linkIndex="3" dir="r" state="o"/>
    <connection from="-E16" to="E17" fromLane="0" toLane="0" via=":J4_4_0" tl="J4" linkIndex="4" dir="s" state="o"/>
    <connection from="-E16" to="-E12" fromLane="1" toLane="1" via=":J4_5_0" tl="J4" linkIndex="5" dir="l" state="o"/>
    <connection from="-E17" to="-E12" fromLane="0" toLane="0" via=":J4_9_0" tl="J4" linkIndex="9" dir="r" state="o"/>
    <connection from="-E17" to="E16" fromLane="0" toLane="0" via=":J4_10_0" tl="J4" linkIndex="10" dir="s" state="o"/>
    <connection from="-E17" to="-E5" fromLane="1" toLane="1" via=":J4_11_0" tl="J4" linkIndex="11" dir="l" state="o"/>
    <connection from="-E2" to="-E17" fromLane="0" toLane="0" via=":J3_6_0" tl="J3" linkIndex="6" dir="r" state="O"/>
    <connection from="-E2" to="E15" fromLane="0" toLane="0" via=":J3_7_0" tl="J3" linkIndex="7" dir="s" state="O"/>
    <connection from="-E2" to="-E3" fromLane="1" toLane="1" via=":J3_8_0" tl="J3" linkIndex="8" dir="l" state="o"/>
    <connection from="-E8" to="-E7" fromLane="0" toLane="0" via=":J7_6_0" tl="J7" linkIndex="6" dir="r" state="O"/>
    <connection from="-E8" to="E14" fromLane="0" toLane="0" via=":J7_7_0" tl="J7" linkIndex="7" dir="s" state="O"/>
    <connection from="-E8" to="-E16" fromLane="1" toLane="1" via=":J7_8_0" tl="J7" linkIndex="8" dir="l" state="o"/>
    <connection from="E12" to="E16" fromLane="0" toLane="1" via=":J4_6_0" tl="J4" linkIndex="6" dir="r" state="O"/>
    <connection from="E12" to="-E5" fromLane="0" toLane="0" via=":J4_7_0" tl="J4" linkIndex="7" dir="s" state="O"/>
    <connection from="E12" to="E17" fromLane="1" toLane="1" via=":J4_8_0" tl="J4" linkIndex="8" dir="l" state="o"/>
    <connection from="E16" to="E8" fromLane="0" toLane="0" via=":J7_9_0" tl="J7" linkIndex="9" dir="r" state="o"/>
    <connection from="E16" to="-E7" fromLane="0" toLane="0" via=":J7_10_0" tl="J7" linkIndex="10" dir="s" state="o"/>
    <connection from="E16" to="E14" fromLane="1" toLane="1" via=":J7_11_0" tl="J7" linkIndex="11" dir="l" state="o"/>
    <connection from="E17" to="E15" fromLane="0" toLane="0" via=":J3_3_0" tl="J3" linkIndex="3" dir="r" state="o"/>
    <connection from="E17" to="-E3" fromLane="0" toLane="0" via=":J3_4_0" tl="J3" linkIndex="4" dir="s" state="o"/>
    <connection from="E17" to="E2" fromLane="1" toLane="1" via=":J3_5_0" tl="J3" linkIndex="5" dir="l" state="o"/>
    <connection from="E3" to="E2" fromLane="0" toLane="0" via=":J3_9_0" tl="J3" linkIndex="9" dir="r" state="o"/>
    <connection from="E3" to="-E17" fromLane="0" toLane="1" via=":J3_10_0" tl="J3" linkIndex="10" dir="s" state="o"/>
    <connection from="E3" to="E15" fromLane="1" toLane="1" via=":J3_11_0" tl="J3" linkIndex="11" dir="l" state="o"/>
    <connection from="E5" to="E17" fromLane="0" toLane="1" via=":J4_0_0" tl="J4" linkIndex="0" dir="r" state="O"/>
    <connection from="E5" to="-E12" fromLane="0" toLane="0" via=":J4_1_0" tl="J4" linkIndex="1" dir="s" state="O"/>
    <connection from="E5" to="E16" fromLane="1" toLane="1" via=":J4_2_0" tl="J4" linkIndex="2" dir="l" state="o"/>
    <connection from="E7" to="E14" fromLane="0" toLane="0" via=":J7_3_0" tl="J7" linkIndex="3" dir="r" state="o"/>
    <connection from="E7" to="-E16" fromLane="0" toLane="1" via=":J7_4_0" tl="J7" linkIndex="4" dir="s" state="o"/>
    <connection from="E7" to="E8" fromLane="1" toLane="1" via=":J7_5_0" tl="J7" linkIndex="5" dir="l" state="o"/>

    <connection from=":J3_0" to="-E3" fromLane="0" toLane="0" dir="r" state="M"/>
    <connection from=":J3_1" to="E2" fromLane="0" toLane="0" dir="s" state="M"/>
    <connection from=":J3_2" to="-E17" fromLane="0" toLane="1" via=":J3_12_0" dir="l" state="m"/>
    <connection from=":J3_12" to="-E17" fromLane="0" toLane="1" dir="l" state="M"/>
    <connection from=":J3_3" to="E15" fromLane="0" toLane="0" dir="r" state="M"/>
    <connection from=":J3_4" to="-E3" fromLane="0" toLane="0" dir="s" state="M"/>
    <connection from=":J3_5" to="E2" fromLane="0" toLane="1" via=":J3_13_0" dir="l" state="m"/>
    <connection from=":J3_13" to="E2" fromLane="0" toLane="1" dir="l" state="M"/>
    <connection from=":J3_6" to="-E17" fromLane="0" toLane="0" dir="r" state="M"/>
    <connection from=":J3_7" to="E15" fromLane="0" toLane="0" dir="s" state="M"/>
    <connection from=":J3_8" to="-E3" fromLane="0" toLane="1" via=":J3_14_0" dir="l" state="m"/>
    <connection from=":J3_14" to="-E3" fromLane="0" toLane="1" dir="l" state="M"/>
    <connection from=":J3_9" to="E2" fromLane="0" toLane="0" dir="r" state="M"/>
    <connection from=":J3_10" to="-E17" fromLane="0" toLane="1" dir="s" state="M"/>
    <connection from=":J3_11" to="E15" fromLane="0" toLane="1" via=":J3_15_0" dir="l" state="m"/>
    <connection from=":J3_15" to="E15" fromLane="0" toLane="1" dir="l" state="M"/>