<?xml version="1.0" encoding="UTF-8"?>

<!-- generated on 2025-08-14 10:45:57 by Eclipse SUMO netgenerate Version 1.24.0
<netgenerateConfiguration xmlns:xsi="http://www.w3.org/2001/XMLSchema-instance" xsi:noNamespaceSchemaLocation="http://sumo.dlr.de/xsd/netgenerateConfiguration.xsd">

    <grid_network>
        <grid value="true"/>
        <grid.length value="160"/>
        <grid.x-number value="2"/>
        <grid.y-number value="2"/>
    </grid_network>

    <output>
        <output-file value="sumo/scenarios/grid_2x2/net.net.xml"/>
    </output>

    <building_defaults>
        <default.lanenumber value="1"/>
        <default-junction-type value="traffic_light"/>
    </building_defaults>

    <tls_building>
        <tls.default-type value="static"/>
    </tls_building>

</netgenerateConfiguration>
-->

<net version="1.20" junctionCornerDetail="5" limitTurnSpeed="5.50" xmlns:xsi="http://www.w3.org/2001/XMLSchema-instance" xsi:noNamespaceSchemaLocation="http://sumo.dlr.de/xsd/net_file.xsd">

    <location netOffset="0.00,0.00" convBoundary="0.00,0.00,160.00,160.00" origBoundary="0.00,0.00,160.00,160.00" projParameter="!"/>

    <edge id=":A0_0" function="internal">
        <lane id=":A0_0_0" index="0" speed="6.08" length="7.74" shape="-1.60,3.20 -1.30,1.10 -0.40,-0.40 1.10,-1.30 3.20,-1.60"/>
    </edge>
    <edge id=":A0_1" function="internal">
        <lane id=":A0_1_0" index="0" speed="3.90" length="2.58" shape="3.20,1.60 2.50,1.70 2.00,2.00 1.70,2.50 1.60,3.20"/>
    </edge>
    <edge id=":A1_0" function="internal">
        <lane id=":A1_0_0" index="0" speed="6.08" length="7.74" shape="3.20,161.60 1.10,161.30 -0.40,160.40 -1.30,158.90 -1.60,156.80"/>
    </edge>
    <edge id=":A1_1" function="internal">
        <lane id=":A1_1_0" index="0" speed="3.90" length="2.58" shape="1.60,156.80 1.70,157.50 2.00,158.00 2.50,158.30 3.20,158.40"/>
    </edge>
    <edge id=":B0_0" function="internal">
        <lane id=":B0_0_0" index="0" speed="3.90" length="2.58" shape="158.40,3.20 158.30,2.50 158.00,2.00 157.50,1.70 156.80,1.60"/>
    </edge>
    <edge id=":B0_1" function="internal">
        <lane id=":B0_1_0" index="0" speed="6.08" length="7.74" shape="156.80,-1.60 158.90,-1.30 160.40,-0.40 161.30,1.10 161.60,3.20"/>
    </edge>
    <edge id=":B1_0" function="internal">
        <lane id=":B1_0_0" index="0" speed="6.08" length="7.74" shape="161.60,156.80 161.30,158.90 160.40,160.40 158.90,161.30 156.80,161.60"/>
    </edge>
    <edge id=":B1_1" function="internal">
        <lane id=":B1_1_0" index="0" speed="3.90" length="2.58" shape="156.80,158.40 157.50,158.30 158.00,158.00 158.30,157.50 158.40,156.80"/>
    </edge>

    <edge id="A0A1" from="A0" to="A1" priority="-1">
        <lane id="A0A1_0" index="0" speed="13.89" length="153.60" shape="1.60,3.20 1.60,156.80"/>
    </edge>
    <edge id="A0B0" from="A0" to="B0" priority="-1">
        <lane id="A0B0_0" index="0" speed="13.89" length="153.60" shape="3.20,-1.60 156.80,-1.60"/>
    </edge>
    <edge id="A1A0" from="A1" to="A0" priority="-1">
        <lane id="A1A0_0" index="0" speed="13.89" length="153.60" shape="-1.60,156.80 -1.60,3.20"/>
    </edge>
    <edge id="A1B1" from="A1" to="B1" priority="-1">
        <lane id="A1B1_0" index="0" speed="13.89" length="153.60" shape="3.20,158.40 156.80,158.40"/>
    </edge>
    <edge id="B0A0" from="B0" to="A0" priority="-1">
        <lane id="B0A0_0" index="0" speed="13.89" length="153.60" shape="156.80,1.60 3.20,1.60"/>
    </edge>
    <edge id="B0B1" from="B0" to="B1" priority="-1">
        <lane id="B0B1_0" index="0" speed="13.89" length="153.60" shape="161.60,3.20 161.60,156.80"/>
    </edge>
    <edge id="B1A1" from="B1" to="A1" priority="-1">
        <lane id="B1A1_0" index="0" speed="13.89" length="153.60" shape="156.80,161.60 3.20,161.60"/>
    </edge>
    <edge id="B1B0" from="B1" to="B0" priority="-1">
        <lane id="B1B0_0" index="0" speed="13.89" length="153.60" shape="158.40,156.80 158.40,3.20"/>
    </edge>

    <tlLogic id="A0" type="static" programID="0" offset="0">
        <phase duration="90" state="GG"/>
    </tlLogic>
    <tlLogic id="A1" type="static" programID="0" offset="0">
        <phase duration="90" state="GG"/>
    </tlLogic>
    <tlLogic id="B0" type="static" programID="0" offset="0">
        <phase duration="90" state="GG"/>
    </tlLogic>
    <tlLogic id="B1" type="static" programID="0" offset="0">
        <phase duration="90" state="GG"/>
    </tlLogic>

    <junction id="A0" type="traffic_light" x="0.00" y="0.00" incLanes="A1A0_0 B0A0_0" intLanes=":A0_0_0 :A0_1_0" shape="-3.20,3.20 3.20,3.20 3.20,-3.20 -0.36,-2.49 -1.60,-1.60 -2.49,-0.36 -3.02,1.24">
        <request index="0" response="00" foes="00" cont="0"/>
        <request index="1" response="00" foes="00" cont="0"/>
    </junction>
    <junction id="A1" type="traffic_light" x="0.00" y="160.00" incLanes="B1A1_0 A0A1_0" intLanes=":A1_0_0 :A1_1_0" shape="3.20,163.20 3.20,156.80 -3.20,156.80 -2.49,160.36 -1.60,161.60 -0.36,162.49 1.24,163.02">
        <request index="0" response="00" foes="00" cont="0"/>
        <request index="1" response="00" foes="00" cont="0"/>
    </junction>
    <junction id="B0" type="traffic_light" x="160.00" y="0.00" incLanes="B1B0_0 A0B0_0" intLanes=":B0_0_0 :B0_1_0" shape="156.80,3.20 163.20,3.20 162.49,-0.36 161.60,-1.60 160.36,-2.49 158.76,-3.02 156.80,-3.20">
        <request index="0" response="00" foes="00" cont="0"/>
        <request index="1" response="00" foes="00" cont="0"/>
    </junction>
    <junction id="B1" type="traffic_light" x="160.00" y="160.00" incLanes="B0B1_0 A1B1_0" intLanes=":B1_0_0 :B1_1_0" shape="163.20,156.80 156.80,156.80 156.80,163.20 160.36,162.49 161.60,161.60 162.49,160.36 163.02,158.76">
        <request index="0" response="00" foes="00" cont="0"/>
        <request index="1" response="00" foes="00" cont="0"/>
    </junction>

    <connection from="A0A1" to="A1B1" fromLane="0" toLane="0" via=":A1_1_0" tl="A1" linkIndex="1" dir="r" state="O"/>
    <connection from="A0B0" to="B0B1" fromLane="0" toLane="0" via=":B0_1_0" tl="B0" linkIndex="1" dir="l" state="O"/>
    <connection from="A1A0" to="A0B0" fromLane="0" toLane="0" via=":A0_0_0" tl="A0" linkIndex="0" dir="l" state="O"/>
    <connection from="A1B1" to="B1B0" fromLane="0" toLane="0" via=":B1_1_0" tl="B1" linkIndex="1" dir="r" state="O"/>
    <connection from="B0A0" to="A0A1" fromLane="0" toLane="0" via=":A0_1_0" tl="A0" linkIndex="1" dir="r" state="O"/>
    <connection from="B0B1" to="B1A1" fromLane="0" toLane="0" via=":B1_0_0" tl="B1" linkIndex="0" dir="l" state="O"/>
    <connection from="B1A1" to="A1A0" fromLane="0" toLane="0" via=":A1_0_0" tl="A1" linkIndex="0" dir="l" state="O"/>
    <connection from="B1B0" to="B0A0" fromLane="0" toLane="0" via=":B0_0_0" tl="B0" linkIndex="0" dir="r" state="O"/>

    <connection from=":A0_0" to="A0B0" fromLane="0" toLane="0" dir="l" state="M"/>
    <connection from=":A0_1" to="A0A1" fromLane="0" toLane="0" dir="r" state="M"/>
    <connection from=":A1_0" to="A1A0" fromLane="0" toLane="0" dir="l" state="M"/>
    <connection from=":A1_1" to="A1B1" fromLane="0" toLane="0" dir="r" state="M"/>
    <connection from=":B0_0" to="B0A0" fromLane="0" toLane="0" dir="r" state="M"/>
    <connection from=":B0_1" to="B0B1" fromLane="0" toLane="0" dir="l" state="M"/>
    <connection from=":B1_0" to="B1A1" fromLane="0" toLane="0" dir="l" state="M"/>
    <connection from=":B1_1" to="B1B0" fromLane="0" toLane="0" dir="r" state="M"/>

</net>
