<?xml version="1.0" encoding="UTF-8"?>

<!-- generated on 2025-08-14 10:45:59.276169 by randomTrips.py v1_24_0+0000-b72eb3fabc8
<configuration>
    <net-file value="sumo/scenarios/corridor_3x2/net.net.xml"/>
    <route-file value="sumo/scenarios/corridor_3x2/routes.rou.xml"/>
    <trip-attributes value="departLane=&quot;best&quot; departSpeed=&quot;max&quot;"/>
    <seed value="104"/>
    <end value="600.0"/>
    <period value="3.0"/>
</configuration>
-->

<!-- generated on 2025-08-14 10:45:59 by Eclipse SUMO duarouter Version 1.24.0
<duarouterConfiguration xmlns:xsi="http://www.w3.org/2001/XMLSchema-instance" xsi:noNamespaceSchemaLocation="http://sumo.dlr.de/xsd/duarouterConfiguration.xsd">

    <input>
        <net-file value="sumo/scenarios/corridor_3x2/net.net.xml"/>
        <route-files value="trips.trips.xml"/>
    </input>

    <output>
        <output-file value="sumo/scenarios/corridor_3x2/routes.rou.xml"/>
        <alternatives-output value="NUL"/>
    </output>

    <time>
        <begin value="0.0"/>
        <end value="600.0"/>
    </time>

    <report>
        <no-warnings value="true"/>
        <ignore-errors value="true"/>
        <no-step-log value="true"/>
    </report>

</duarouterConfiguration>
-->

<routes xmlns:xsi="http://www.w3.org/2001/XMLSchema-instance" xsi:noNamespaceSchemaLocation="http://sumo.dlr.de/xsd/routes_file.xsd">
    <vehicle id="0" depart="0.00" departLane="best" departSpeed="max">
        <route edges="C1C0 C0B0 B0C0 C0C1 C1B1"/>
    </vehicle>
    <vehicle id="1" depart="3.00" departLane="best" departSpeed="max">
        <route edges="C0B0 B0A0 A0A1 A1B1"/>
    </vehicle>
    <vehicle id="2" depart="6.00" departLane="best" departSpeed="max">
        <route edges="B0A0 A0A1 A1B1 B1C1"/>
    </vehicle>
    <vehicle id="3" depart="9.00" departLane="best" departSpeed="max">
        <route edges="C0C1 C1B1 B1B0 B0A0 A0A1"/>
    </vehicle>
    <vehicle id="4" depart="12.00" departLane="best" departSpeed="max">
        <route edges="A1A0 A0B0 B0C0 C0C1 C1B1"/>
    </vehicle>
    <vehicle id="5" depart="15.00" departLane="best" departSpeed="max">
        <route edges="A0B0 B0B1 B1C1"/>
    </vehicle>
    <vehicle id="6" depart="18.00" departLane="best" departSpeed="max">
        <route edges="B0A0 A0A1 A1B1 B1C1"/>
    </vehicle>
    <vehicle id="7" depart="21.00" departLane="best" departSpeed="max">
        <route edges="C1B1 B1B0"/>
    </vehicle>
    <vehicle id="8" depart="24.00" departLane="best" departSpeed="max">
        <route edges="B0B1 B1B0 B0A0"/>
    </vehicle>
    <vehicle id="9" depart="27.00" departLane="best" departSpeed="max">
        <route edges="B1B0"/>
    </vehicle>
    <vehicle id="10" depart="30.00" departLane="best" departSpeed="max">
        <route edges="B0B1 B1B0 B0C0"/>
    </vehicle>
    <vehicle id="11" depart="33.00" departLane="best" departSpeed="max">
        <route edges="B1A1 A1A0 A0B0 B0A0 A0A1 A1B1"/>
    </vehicle>
    <vehicle id="12" depart="36.00" departLane="best" departSpeed="max">
        <route edges="A1A0 A0B0 B0B1 B1A1"/>
    </vehicle>
    <vehicle id="13" depart="39.00" departLane="best" departSpeed="max">
        <route edges="A0B0 B0B1 B1B0"/>
    </vehicle>
    <vehicle id="14" depart="42.00" departLane="best" departSpeed="max">
        <route edges="C0C1"/>
    </vehicle>
    <vehicle id="15" depart="45.00" departLane="best" departSpeed="max">
        <route edges="A1B1 B1B0 B0B1"/>
    </vehicle>
    <vehicle id="16" depart="48.00" departLane="best" departSpeed="max">
        <route edges="C1B1 B1B0 B0A0"/>
    </vehicle>
    <vehicle id="17" depart="51.00" departLane="best" departSpeed="max">
        <route edges="C1C0 C0B0 B0B1 B1A1 A1A0"/>
    </vehicle>
    <vehicle id="18" depart="54.00" departLane="best" departSpeed="max">
        <route edges="C0C1 C1B1 B1B0 B0A0 A0A1"/>
    </vehicle>
    <vehicle id="19" depart="57.00" departLane="best" departSpeed="max">
        <route edges="B1C1 C1C0 C0B0 B0C0 C0C1"/>
    </vehicle>
    <vehicle id="20" depart="60.00" departLane="best" departSpeed="max">
        <route edges="B1A1 A1A0 A0B0 B0B1 B1B0"/>
    </vehicle>
    <vehicle id="21" depart="63.00" departLane="best" departSpeed="max">
        <route edges="C1B1 B1C1 C1C0"/>
    </vehicle>
    <vehicle id="22" depart="66.00" departLane="best" departSpeed="max">
        <route edges="A1A0 A0B0 B0B1 B1A1"/>
    </vehicle>
    <vehicle id="23" depart="69.00" departLane="best" departSpeed="max">
        <route edges="A0A1 A1B1 B1B0 B0B1"/>
    </vehicle>
    <vehicle id="24" depart="72.00" departLane="best" departSpeed="max">
        <route edges="A1A0"/>
    </vehicle>
    <vehicle id="25" depart="75.00" departLane="best" departSpeed="max">
        <route edges="B1B0 B0B1 B1A1 A1A0 A0B0"/>
    </vehicle>
    <vehicle id="26" depart="78.00" departLane="best" departSpeed="max">
        <route edges="A1A0 A0B0 B0A0 A0A1"/>
    </vehicle>
    <vehicle id="27" depart="81.00" departLane="best" departSpeed="max">
        <route edges="C0C1 C1B1 B1B0 B0A0 A0A1 A1B1"/>
    </vehicle>
    <vehicle id="28" depart="84.00" departLane="best" departSpeed="max">
        <route edges="A0B0 B0B1 B1B0"/>
    </vehicle>
    <vehicle id="29" depart="87.00" departLane="best" departSpeed="max">
        <route edges="C0B0 B0B1 B1B0"/>
    </vehicle>
    <vehicle id="30" depart="90.00" departLane="best" departSpeed="max">
        <route edges="B1A1"/>
    </vehicle>
    <vehicle id="31" depart="93.00" departLane="best" departSpeed="max">
        <route edges="C0B0 B0A0"/>
    </vehicle>
    <vehicle id="32" depart="96.00" departLane="best" departSpeed="max">
        <route edges="C0C1 C1B1 B1C1"/>
    </vehicle>
    <vehicle id="33" depart="99.00" departLane="best" departSpeed="max">
        <route edges="C1B1"/>
    </vehicle>
    <vehicle id="34" depart="102.00" departLane="best" departSpeed="max">
        <route edges="C0C1 C1B1 B1A1"/>
    </vehicle>
    <vehicle id="35" depart="105.00" departLane="best" departSpeed="max">
        <route edges="B1A1 A1A0 A0B0 B0B1 B1C1 C1C0 C0B0"/>
    </vehicle>
    <vehicle id="36" depart="108.00" departLane="best" departSpeed="max">
        <route edges="B1B0 B0A0 A0A1"/>
    </vehicle>
    <vehicle id="37" depart="111.00" departLane="best" departSpeed="max">
        <route edges="C1B1 B1A1 A1A0"/>
    </vehicle>
    <vehicle id="38" depart="114.00" departLane="best" departSpeed="max">
        <route edges="B0C0"/>
    </vehicle>
    <vehicle id="39" depart="117.00" departLane="best" departSpeed="max">
        <route edges="A0B0 B0B1 B1B0"/>
    </vehicle>
    <vehicle id="40" depart="120.00" departLane="best" departSpeed="max">
        <route edges="B1B0 B0C0 C0C1"/>
    </vehicle>
    <vehicle id="41" depart="123.00" departLane="best" departSpeed="max">
        <route edges="B1B0 B0A0"/>
    </vehicle>
    <vehicle id="42" depart="126.00" departLane="best" departSpeed="max">
        <route edges="B1A1 A1A0 A0B0 B0B1 B1C1 C1C0"/>
    </vehicle>
    <vehicle id="43" depart="129.00" departLane="best" departSpeed="max">
        <route edges="B1B0 B0C0 C0C1"/>
    </vehicle>
    <vehicle id="44" depart="132.00" departLane="best" departSpeed="max">
        <route edges="A0A1 A1B1 B1C1"/>
    </vehicle>
    <vehicle id="45" depart="135.00" departLane="best" departSpeed="max">
        <route edges="A1A0"/>
    </vehicle>
    <vehicle id="46" depart="138.00" departLane="best" departSpeed="max">
        <route edges="B0A0 A0A1 A1B1 B1A1 A1A0"/>
    </vehicle>
    <vehicle id="47" depart="141.00" departLane="best" departSpeed="max">
        <route edges="A0B0 B0B1 B1A1 A1A0"/>
    </vehicle>
    <vehicle id="48" depart="144.00" departLane="best" departSpeed="max">
        <route edges="A1B1"/>
    </vehicle>
    <vehicle id="49" depart="147.00" departLane="best" departSpeed="max">
        <route edges="C0C1 C1B1 B1A1 A1A0 A0B0"/>
    </vehicle>
    <vehicle id="50" depart="150.00" departLane="best" departSpeed="max">
        <route edges="A1A0 A0B0 B0A0 A0A1"/>
    </vehicle>
    <vehicle id="51" depart="153.00" departLane="best" departSpeed="max">
        <route edges="B1A1 A1A0 A0B0 B0A0 A0A1 A1B1"/>
    </vehicle>
    <vehicle id="52" depart="156.00" departLane="best" departSpeed="max">
        <route edges="B1A1 A1A0 A0B0 B0A0 A0A1 A1B1"/>
    </vehicle>
    <vehicle id="53" depart="159.00" departLane="best" departSpeed="max">
        <route edges="A1A0 A0B0 B0C0"/>
    </vehicle>
    <vehicle id="54" depart="162.00" departLane="best" departSpeed="max">
        <route edges="A0B0 B0C0 C0C1 C1B1"/>
    </vehicle>
    <vehicle id="55" depart="165.00" departLane="best" departSpeed="max">
        <route edges="B1A1 A1A0 A0B0 B0B1"/>
    </vehicle>
    <vehicle id="56" depart="168.00" departLane="best" departSpeed="max">
        <route edges="B1A1 A1A0 A0B0 B0B1 B1C1 C1C0"/>
    </vehicle>
    <vehicle id="57" depart="171.00" departLane="best" departSpeed="max">
        <route edges="B0C0 C0C1 C1B1 B1B0 B0B1"/>
    </vehicle>
    <vehicle id="58" depart="174.00" departLane="best" departSpeed="max">
        <route edges="A1B1 B1B0 B0B1"/>
    </vehicle>
    <vehicle id="59" depart="177.00" departLane="best" departSpeed="max">
        <route edges="C0B0 B0B1 B1B0"/>
    </vehicle>
    <vehicle id="60" depart="180.00" departLane="best" departSpeed="max">
        <route edges="A1B1 B1B0 B0C0 C0C1 C1B1"/>
    </vehicle>
    <vehicle id="61" depart="183.00" departLane="best" departSpeed="max">
        <route edges="A0B0 B0A0"/>
    </vehicle>
    <vehicle id="62" depart="186.00" departLane="best" departSpeed="max">
        <route edges="C0B0 B0C0 C0C1 C1B1"/>
    </vehicle>
    <vehicle id="63" depart="189.00" departLane="best" departSpeed="max">
        <route edges="B0C0 C0C1 C1B1 B1B0 B0A0 A0A1"/>
    </vehicle>
    <vehicle id="64" depart="192.00" departLane="best" departSpeed="max">
        <route edges="B1A1 A1A0 A0B0 B0B1"/>
    </vehicle>
    <vehicle id="65" depart="195.00" departLane="best" departSpeed="max">
        <route edges="A0A1 A1B1 B1B0 B0A0"/>
    </vehicle>
    <vehicle id="66" depart="198.00" departLane="best" departSpeed="max">
        <route edges="C1B1 B1B0 B0A0 A0A1"/>
    </vehicle>
    <vehicle id="67" depart="201.00" departLane="best" departSpeed="max">
        <route edges="A1A0"/>
    </vehicle>
    <vehicle id="68" depart="204.00" departLane="best" departSpeed="max">
        <route edges="C0C1 C1B1 B1B0 B0A0"/>
    </vehicle>
    <vehicle id="69" depart="207.00" departLane="best" departSpeed="max">
        <route edges="B1C1"/>
    </vehicle>
    <vehicle id="70" depart="210.00" departLane="best" departSpeed="max">
        <route edges="A0A1 A1B1 B1B0 B0C0"/>
    </vehicle>
    <vehicle id="71" depart="213.00" departLane="best" departSpeed="max">
        <route edges="A0B0 B0C0 C0C1"/>
    </vehicle>
    <vehicle id="72" depart="216.00" departLane="best" departSpeed="max">
        <route edges="B0C0 C0C1 C1B1 B1B0 B0B1"/>
    </vehicle>
    <vehicle id="73" depart="219.00" departLane="best" departSpeed="max">
        <route edges="C0C1"/>
    </vehicle>
    <vehicle id="74" depart="222.00" departLane="best" departSpeed="max">
        <route edges="A0A1 A1B1 B1A1 A1A0 A0B0"/>
    </vehicle>
    <vehicle id="75" depart="225.00" departLane="best" departSpeed="max">
        <route edges="B0A0"/>
    </vehicle>
    <vehicle id="76" depart="228.00" departLane="best" departSpeed="max">
        <route edges="B0C0 C0C1 C1B1 B1B0 B0B1"/>
    </vehicle>
    <vehicle id="77" depart="231.00" departLane="best" departSpeed="max">
        <route edges="C1C0 C0B0 B0B1 B1C1"/>
    </vehicle>
    <vehicle id="78" depart="234.00" departLane="best" departSpeed="max">
        <route edges="C1C0 C0B0 B0B1 B1B0"/>
    </vehicle>
    <vehicle id="79" depart="237.00" departLane="best" departSpeed="max">
        <route edges="A1B1 B1A1"/>
    </vehicle>
    <vehicle id="80" depart="240.00" departLane="best" departSpeed="max">
        <route edges="A1A0 A0B0 B0B1 B1B0"/>
    </vehicle>
    <vehicle id="81" depart="243.00" departLane="best" departSpeed="max">
        <route edges="A0B0 B0B1 B1C1 C1C0"/>
    </vehicle>
    <vehicle id="82" depart="246.00" departLane="best" departSpeed="max">
        <route edges="B0A0 A0A1 A1B1 B1B0 B0C0 C0C1 C1B1"/>
    </vehicle>
    <vehicle id="83" depart="249.00" departLane="best" departSpeed="max">
        <route edges="A1B1 B1A1 A1A0"/>
    </vehicle>
    <vehicle id="84" depart="252.00" departLane="best" departSpeed="max">
        <route edges="A1B1 B1B0 B0C0 C0C1"/>
    </vehicle>
    <vehicle id="85" depart="255.00" departLane="best" departSpeed="max">
        <route edges="C0C1 C1B1 B1C1 C1C0 C0B0"/>
    </vehicle>
    <vehicle id="86" depart="258.00" departLane="best" departSpeed="max">
        <route edges="B1B0 B0B1 B1A1 A1A0"/>
    </vehicle>
    <vehicle id="87" depart="261.00" departLane="best" departSpeed="max">
        <route edges="A1B1 B1B0 B0A0 A0A1"/>
    </vehicle>
    <vehicle id="88" depart="264.00" departLane="best" departSpeed="max">
        <route edges="C1C0 C0B0 B0B1 B1A1 A1A0 A0B0"/>
    </vehicle>
    <vehicle id="89" depart="267.00" departLane="best" departSpeed="max">
        <route edges="C0B0 B0A0 A0A1"/>
    </vehicle>
    <vehicle id="90" depart="270.00" departLane="best" departSpeed="max">
        <route edges="A1B1 B1B0"/>
    </vehicle>
    <vehicle id="91" depart="273.00" departLane="best" departSpeed="max">
        <route edges="A1A0 A0B0 B0A0 A0A1"/>
    </vehicle>
    <vehicle id="92" depart="276.00" departLane="best" departSpeed="max">
        <route edges="C1B1 B1B0 B0A0"/>
    </vehicle>
    <vehicle id="93" depart="279.00" departLane="best" departSpeed="max">
        <route edges="A0A1 A1B1 B1C1"/>
    </vehicle>
    <vehicle id="94" depart="282.00" departLane="best" departSpeed="max">
        <route edges="C1C0 C0B0 B0B1 B1A1"/>
    </vehicle>
    <vehicle id="95" depart="285.00" departLane="best" departSpeed="max">
        <route edges="A0A1 A1B1 B1B0 B0B1"/>
    </vehicle>
    <vehicle id="96" depart="288.00" departLane="best" departSpeed="max">
        <route edges="B1B0 B0A0 A0A1 A1B1"/>
    </vehicle>
    <vehicle id="97" depart="291.00" departLane="best" departSpeed="max">
        <route edges="B0B1 B1C1 C1C0 C0B0"/>
    </vehicle>
    <vehicle id="98" depart="294.00" departLane="best" departSpeed="max">
        <route edges="B1C1 C1C0 C0B0 B0C0 C0C1"/>
    </vehicle>
    <vehicle id="99" depart="297.00" departLane="best" departSpeed="max">
        <route edges="C1C0 C0B0 B0B1 B1A1"/>
    </vehicle>
    <vehicle id="100" depart="300.00" departLane="best" departSpeed="max">
        <route edges="C1C0 C0B0 B0B1 B1A1 A1A0 A0B0"/>
    </vehicle>
    <vehicle id="101" depart="303.00" departLane="best" departSpeed="max">
        <route edges="B1A1 A1A0 A0B0 B0B1 B1C1"/>
    </vehicle>
    <vehicle id="102" depart="306.00" departLane="best" departSpeed="max">
        <route edges="C1C0 C0B0 B0C0"/>
    </vehicle>
    <vehicle id="103" depart="309.00" departLane="best" departSpeed="max">
        <route edges="B0C0 C0C1 C1B1"/>
    </vehicle>
    <vehicle id="104" depart="312.00" departLane="best" departSpeed="max">
        <route edges="B0C0 C0C1 C1B1 B1B0 B0A0 A0A1"/>
    </vehicle>
    <vehicle id="105" depart="315.00" departLane="best" departSpeed="max">
        <route edges="B0C0 C0C1 C1B1 B1B0 B0A0 A0A1 A1B1"/>
    </vehicle>
    <vehicle id="106" depart="318.00" departLane="best" departSpeed="max">
        <route edges="B1C1 C1C0 C0B0 B0C0 C0C1"/>
    </vehicle>
    <vehicle id="107" depart="321.00" departLane="best" departSpeed="max">
        <route edges="A0A1 A1B1 B1B0 B0A0"/>
    </vehicle>
    <vehicle id="108" depart="324.00" departLane="best" departSpeed="max">
        <route edges="C1B1 B1B0 B0C0 C0C1"/>
    </vehicle>
    <vehicle id="109" depart="327.00" departLane="best" departSpeed="max">
        <route edges="C0B0 B0B1"/>
    </vehicle>
    <vehicle id="110" depart="330.00" departLane="best" departSpeed="max">
        <route edges="C1C0 C0B0 B0C0 C0C1"/>
    </vehicle>
    <vehicle id="111" depart="333.00" departLane="best" departSpeed="max">
        <route edges="C0C1 C1B1 B1A1"/>
    </vehicle>
    <vehicle id="112" depart="336.00" departLane="best" departSpeed="max">
        <route edges="B1B0 B0B1 B1A1 A1A0 A0B0"/>
    </vehicle>
    <vehicle id="113" depart="339.00" departLane="best" departSpeed="max">
        <route edges="A0A1"/>
    </vehicle>
    <vehicle id="114" depart="342.00" departLane="best" departSpeed="max">
        <route edges="A0A1 A1B1 B1A1"/>
    </vehicle>
    <vehicle id="115" depart="345.00" departLane="best" departSpeed="max">
        <route edges="C1C0 C0B0 B0B1 B1B0"/>
    </vehicle>
    <vehicle id="116" depart="348.00" departLane="best" departSpeed="max">
        <route edges="C0C1 C1B1 B1C1 C1C0 C0B0"/>
    </vehicle>
    <vehicle id="117" depart="351.00" departLane="best" departSpeed="max">
        <route edges="C1C0 C0B0 B0A0 A0A1 A1B1"/>
    </vehicle>
    <vehicle id="118" depart="354.00" departLane="best" departSpeed="max">
        <route edges="B0C0 C0C1 C1B1"/>
    </vehicle>
    <vehicle id="119" depart="357.00" departLane="best" departSpeed="max">
        <route edges="B0A0 A0A1 A1B1 B1C1"/>
    </vehicle>
    <vehicle id="120" depart="360.00" departLane="best" departSpeed="max">
        <route edges="B0B1 B1A1 A1A0"/>
    </vehicle>
    <vehicle id="121" depart="363.00" departLane="best" departSpeed="max">
        <route edges="A1A0 A0B0 B0B1"/>
    </vehicle>
    <vehicle id="122" depart="366.00" departLane="best" departSpeed="max">
        <route edges="A0A1 A1B1 B1B0 B0C0 C0C1 C1B1"/>
    </vehicle>
    <vehicle id="123" depart="369.00" departLane="best" departSpeed="max">
        <route edges="B0A0 A0A1 A1B1"/>
    </vehicle>
    <vehicle id="124" depart="372.00" departLane="best" departSpeed="max">
        <route edges="C0C1 C1B1 B1B0 B0A0 A0A1"/>
    </vehicle>
    <vehicle id="125" depart="375.00" departLane="best" departSpeed="max">
        <route edges="C0B0 B0C0"/>
    </vehicle>
    <vehicle id="126" depart="378.00" departLane="best" departSpeed="max">
        <route edges="A0B0 B0B1"/>
    </vehicle>
    <vehicle id="127" depart="381.00" departLane="best" departSpeed="max">
        <route edges="C1C0 C0B0 B0A0 A0A1"/>
    </vehicle>
    <vehicle id="128" depart="384.00" departLane="best" departSpeed="max">
        <route edges="A1B1 B1A1 A1A0"/>
    </vehicle>
    <vehicle id="129" depart="387.00" departLane="best" departSpeed="max">
        <route edges="B1B0 B0B1 B1A1 A1A0"/>
    </vehicle>
    <vehicle id="130" depart="390.00" departLane="best" departSpeed="max">
        <route edges="C0C1 C1B1 B1B0 B0B1"/>
    </vehicle>
    <vehicle id="131" depart="393.00" departLane="best" departSpeed="max">
        <route edges="C1C0 C0B0 B0B1 B1A1 A1A0 A0B0"/>
    </vehicle>
    <vehicle id="132" depart="396.00" departLane="best" departSpeed="max">
        <route edges="A1B1 B1B0 B0A0 A0A1"/>
    </vehicle>
    <vehicle id="133" depart="399.00" departLane="best" departSpeed="max">
        <route edges="A0A1 A1B1 B1A1 A1A0"/>
    </vehicle>
    <vehicle id="134" depart="402.00" departLane="best" departSpeed="max">
        <route edges="B1B0 B0B1 B1A1"/>
    </vehicle>
    <vehicle id="135" depart="405.00" departLane="best" departSpeed="max">
        <route edges="C0B0 B0A0 A0A1 A1B1"/>
    </vehicle>
    <vehicle id="136" depart="408.00" departLane="best" departSpeed="max">
        <route edges="B1B0 B0B1 B1C1 C1C0"/>
    </vehicle>
    <vehicle id="137" depart="411.00" departLane="best" departSpeed="max">
        <route edges="B0A0 A0A1 A1B1"/>
    </vehicle>
    <vehicle id="138" depart="414.00" departLane="best" departSpeed="max">
        <route edges="A1A0 A0B0 B0B1 B1C1 C1C0"/>
    </vehicle>
    <vehicle id="139" depart="417.00" departLane="best" departSpeed="max">
        <route edges="B1B0 B0C0"/>
    </vehicle>
    <vehicle id="140" depart="420.00" departLane="best" departSpeed="max">
        <route edges="B0C0 C0C1 C1B1 B1A1 A1A0 A0B0"/>
    </vehicle>
    <vehicle id="141" depart="423.00" departLane="best" departSpeed="max">
        <route edges="A1B1 B1C1"/>
    </vehicle>
    <vehicle id="142" depart="426.00" departLane="best" departSpeed="max">
        <route edges="A1B1 B1A1"/>
    </vehicle>
    <vehicle id="143" depart="429.00" departLane="best" departSpeed="max">
        <route edges="C1B1 B1A1 A1A0"/>
    </vehicle>
    <vehicle id="144" depart="432.00" departLane="best" departSpeed="max">
        <route edges="B0C0 C0C1 C1B1 B1C1 C1C0 C0B0"/>
    </vehicle>
    <vehicle id="145" depart="435.00" departLane="best" departSpeed="max">
        <route edges="C0B0 B0C0 C0C1"/>
    </vehicle>
    <vehicle id="146" depart="438.00" departLane="best" departSpeed="max">
        <route edges="C1B1 B1B0"/>
    </vehicle>
    <vehicle id="147" depart="441.00" departLane="best" departSpeed="max">
        <route edges="A1B1 B1A1"/>
    </vehicle>
    <vehicle id="148" depart="444.00" departLane="best" departSpeed="max">
        <route edges="C1B1 B1A1 A1A0"/>
    </vehicle>
    <vehicle id="149" depart="447.00" departLane="best" departSpeed="max">
        <route edges="B0A0 A0A1 A1B1 B1A1 A1A0"/>
    </vehicle>
    <vehicle id="150" depart="450.00" departLane="best" departSpeed="max">
        <route edges="C1B1 B1A1 A1A0 A0B0"/>
    </vehicle>
    <vehicle id="151" depart="453.00" departLane="best" departSpeed="max">
        <route edges="A1A0 A0B0 B0B1 B1B0"/>
    </vehicle>
    <vehicle id="152" depart="456.00" departLane="best" departSpeed="max">
        <route edges="C0B0 B0B1"/>
    </vehicle>
    <vehicle id="153" depart="459.00" departLane="best" departSpeed="max">
        <route edges="C0B0 B0B1 B1C1"/>
    </vehicle>
    <vehicle id="154" depart="462.00" departLane="best" departSpeed="max">
        <route edges="B0B1 B1A1 A1A0 A0B0"/>
    </vehicle>
    <vehicle id="155" depart="465.00" departLane="best" departSpeed="max">
        <route edges="B1C1 C1C0 C0B0 B0B1 B1B0"/>
    </vehicle>
    <vehicle id="156" depart="468.00" departLane="best" departSpeed="max">
        <route edges="C1C0 C0B0 B0B1 B1C1"/>
    </vehicle>
    <vehicle id="157" depart="471.00" departLane="best" departSpeed="max">
        <route edges="A0A1 A1B1 B1A1 A1A0"/>
    </vehicle>
    <vehicle id="158" depart="474.00" departLane="best" departSpeed="max">
        <route edges="B0A0 A0A1 A1B1 B1C1 C1C0 C0B0"/>
    </vehicle>
    <vehicle id="159" depart="477.00" departLane="best" departSpeed="max">
        <route edges="B0A0 A0A1 A1B1"/>
    </vehicle>
    <vehicle id="160" depart="480.00" departLane="best" departSpeed="max">
        <route edges="A1A0 A0B0 B0A0 A0A1 A1B1"/>
    </vehicle>
    <vehicle id="161" depart="483.00" departLane="best" departSpeed="max">
        <route edges="B0C0 C0C1 C1B1 B1C1"/>
    </vehicle>
    <vehicle id="162" depart="486.00" departLane="best" departSpeed="max">
        <route edges="C0C1 C1B1 B1A1 A1A0 A0B0"/>
    </vehicle>
    <vehicle id="163" depart="489.00" departLane="best" departSpeed="max">
        <route edges="B1A1 A1A0 A0B0 B0B1 B1C1 C1C0"/>
    </vehicle>
    <vehicle id="164" depart="492.00" departLane="best" departSpeed="max">
        <route edges="B0B1 B1A1 A1A0 A0B0"/>
    </vehicle>
    <vehicle id="165" depart="495.00" departLane="best" departSpeed="max">
        <route edges="B1C1 C1C0 C0B0 B0C0 C0C1"/>
    </vehicle>
    <vehicle id="166" depart="498.00" departLane="best" departSpeed="max">
        <route edges="A0A1 A1B1 B1A1 A1A0 A0B0"/>
    </vehicle>
    <vehicle id="167" depart="501.00" departLane="best" departSpeed="max">
        <route edges="B0A0 A0A1 A1B1 B1B0 B0B1"/>
    </vehicle>
    <vehicle id="168" depart="504.00" departLane="best" departSpeed="max">
        <route edges="A0B0"/>
    </vehicle>
    <vehicle id="169" depart="507.00" departLane="best" departSpeed="max">
        <route edges="B0B1 B1C1 C1C0"/>
    </vehicle>
    <vehicle id="170" depart="510.00" departLane="best" departSpeed="max">
        <route edges="B1A1 A1A0 A0B0 B0A0 A0A1 A1B1"/>
    </vehicle>
    <vehicle id="171" depart="513.00" departLane="best" departSpeed="max">
        <route edges="C1C0 C0B0 B0A0 A0A1 A1B1"/>
    </vehicle>
    <vehicle id="172" depart="516.00" departLane="best" departSpeed="max">
        <route edges="A0B0"/>
    </vehicle>
    <vehicle id="173" depart="519.00" departLane="best" departSpeed="max">
        <route edges="A0A1 A1B1 B1B0 B0C0 C0C1 C1B1"/>
    </vehicle>
    <vehicle id="174" depart="522.00" departLane="best" departSpeed="max">
        <route edges="B1A1 A1A0 A0B0 B0B1 B1C1 C1C0"/>
    </vehicle>
    <vehicle id="175" depart="525.00" departLane="best" departSpeed="max">
        <route edges="B1A1 A1A0 A0B0 B0A0 A0A1"/>
    </vehicle>
    <vehicle id="176" depart="528.00" departLane="best" departSpeed="max">
        <route edges="B0B1 B1B0 B0A0"/>
    </vehicle>
    <vehicle id="177" depart="531.00" departLane="best" departSpeed="max">
        <route edges="A1A0 A0B0"/>
    </vehicle>
    <vehicle id="178" depart="534.00" departLane="best" departSpeed="max">
        <route edges="B1C1 C1C0 C0B0 B0C0 C0C1 C1B1"/>
    </vehicle>
    <vehicle id="179" depart="537.00" departLane="best" departSpeed="max">
        <route edges="C1C0 C0B0 B0A0 A0A1 A1B1"/>
    </vehicle>
    <vehicle id="180" depart="540.00" departLane="best" departSpeed="max">
        <route edges="B1B0 B0A0 A0A1 A1B1"/>
    </vehicle>
    <vehicle id="181" depart="543.00" departLane="best" departSpeed="max">
        <route edges="C0C1 C1B1"/>
    </vehicle>
    <vehicle id="182" depart="546.00" departLane="best" departSpeed="max">
        <route edges="A0A1 A1B1 B1A1 A1A0"/>
    </vehicle>
    <vehicle id="183" depart="549.00" departLane="best" departSpeed="max">
        <route edges="C1B1 B1C1 C1C0"/>
    </vehicle>
    <vehicle id="184" depart="552.00" departLane="best" departSpeed="max">
        <route edges="C0C1 C1B1 B1B0 B0A0 A0A1"/>
    </vehicle>
    <vehicle id="185" depart="555.00" departLane="best" departSpeed="max">
        <route edges="B1B0 B0B1 B1C1 C1C0 C0B0"/>
    </vehicle>
    <vehicle id="186" depart="558.00" departLane="best" departSpeed="max">
        <route edges="B1A1"/>
    </vehicle>
    <vehicle id="187" depart="561.00" departLane="best" departSpeed="max">
        <route edges="C0B0 B0A0 A0A1"/>
    </vehicle>
    <vehicle id="188" depart="564.00" departLane="best" departSpeed="max">
        <route edges="B1A1 A1A0 A0B0 B0B1 B1C1 C1C0"/>
    </vehicle>
    <vehicle id="189" depart="567.00" departLane="best" departSpeed="max">
        <route edges="B1A1 A1A0 A0B0 B0B1"/>
    </vehicle>
    <vehicle id="190" depart="570.00" departLane="best" departSpeed="max">
        <route edges="A0B0 B0C0 C0C1 C1B1"/>
    </vehicle>
    <vehicle id="191" depart="573.00" departLane="best" departSpeed="max">
        <route edges="B1C1 C1C0"/>
    </vehicle>
    <vehicle id="192" depart="576.00" departLane="best" departSpeed="max">
        <route edges="C1C0 C0B0 B0B1 B1C1"/>
    </vehicle>
    <vehicle id="193" depart="579.00" departLane="best" departSpeed="max">
        <route edges="C0C1"/>
    </vehicle>
    <vehicle id="194" depart="582.00" departLane="best" departSpeed="max">
        <route edges="C0B0 B0B1"/>
    </vehicle>
    <vehicle id="195" depart="585.00" departLane="best" departSpeed="max">
        <route edges="B1C1 C1C0 C0B0"/>
    </vehicle>
    <vehicle id="196" depart="588.00" departLane="best" departSpeed="max">
        <route edges="A1B1 B1B0 B0C0 C0C1"/>
    </vehicle>
    <vehicle id="197" depart="591.00" departLane="best" departSpeed="max">
        <route edges="B1B0 B0B1"/>
    </vehicle>
    <vehicle id="198" depart="594.00" departLane="best" departSpeed="max">
        <route edges="B0C0 C0C1 C1B1"/>
    </vehicle>
    <vehicle id="199" depart="597.00" departLane="best" departSpeed="max">
        <route edges="A0A1"/>
    </vehicle>
</routes>
