<?xml version="1.0" encoding="UTF-8"?>

<!-- generated on 2025-08-15 08:22:04 by Eclipse SUMO netedit Version 1.24.0
<neteditConfiguration xmlns:xsi="http://www.w3.org/2001/XMLSchema-instance" xsi:noNamespaceSchemaLocation="http://sumo.dlr.de/xsd/neteditConfiguration.xsd">

    <input>
        <sumo-net-file value="C:\Users\melio\OneDrive\Escritorio\Proyectos\semaforos-geneticos\sumo-federado\arista 5\5_arista_simulation.net.xml"/>
    </input>

    <output>
        <output-file value="C:\Users\melio\OneDrive\Escritorio\Proyectos\semaforos-geneticos\sumo-federado\arista 5\5_arista_simulation.net.xml"/>
    </output>

    <processing>
        <offset.disable-normalization value="true"/>
    </processing>

    <junctions>
        <no-turnarounds value="true"/>
    </junctions>

    <netedit>
        <new-network value="false"/>
    </netedit>

</neteditConfiguration>
-->

<net version="1.20" junctionCornerDetail="5" limitTurnSpeed="5.50" xmlns:xsi="http://www.w3.org/2001/XMLSchema-instance" xsi:noNamespaceSchemaLocation="http://sumo.dlr.de/xsd/net_file.xsd">

    <location netOffset="0.00,0.00" convBoundary="0.00,-100.00,200.00,100.00" origBoundary="10000000000.00,10000000000.00,-10000000000.00,-10000000000.00" projParameter="!"/>

    <edge id=":J0_0" function="internal">
        <lane id=":J0_0_0" index="0" speed="13.89" length="40.65" shape="-4.80,19.45 -3.85,9.12 -1.01,-0.42 3.73,-9.18 10.36,-17.15"/>
    </edge>
    <edge id=":J0_1" function="internal">
        <lane id=":J0_1_0" index="0" speed="12.99" length="39.11" shape="-4.80,19.45 -3.28,8.84 1.26,1.26 8.84,-3.28 19.45,-4.80"/>
        <lane id=":J0_1_1" index="1" speed="12.13" length="33.95" shape="-1.60,19.45 -0.28,10.24 3.66,3.66 10.24,-0.28 19.45,-1.60"/>
    </edge>
    <edge id=":J0_3" function="internal">
        <lane id=":J0_3_0" index="0" speed="8.14" length="23.57" shape="-1.60,19.45 -0.01,13.22 4.01,9.69 9.35,9.34 14.89,12.62"/>
    </edge>
    <edge id=":J0_4" function="internal">
        <lane id=":J0_4_0" index="0" speed="5.47" length="9.74" shape="10.36,17.15 7.93,15.21 6.19,14.94 5.15,16.36 4.80,19.45"/>
    </edge>
    <edge id=":J0_5" function="internal">
        <lane id=":J0_5_0" index="0" speed="12.99" length="39.11" shape="10.36,17.15 3.93,8.57 1.79,0.00 3.93,-8.57 10.36,-17.15"/>
        <lane id=":J0_5_1" index="1" speed="12.13" length="33.95" shape="12.62,14.89 7.04,7.44 5.18,-0.00 7.04,-7.44 12.62,-14.89"/>
    </edge>
    <edge id=":J0_7" function="internal">
        <lane id=":J0_7_0" index="0" speed="8.14" length="23.57" shape="12.62,14.89 9.34,9.35 9.69,4.01 13.22,-0.01 19.45,-1.60"/>
    </edge>
    <edge id=":J0_8" function="internal">
        <lane id=":J0_8_0" index="0" speed="5.47" length="9.74" shape="19.45,4.80 16.36,5.15 14.94,6.19 15.21,7.93 17.15,10.36"/>
    </edge>
    <edge id=":J0_9" function="internal">
        <lane id=":J0_9_0" index="0" speed="10.18" length="23.63" shape="19.45,4.80 13.04,5.72 8.46,8.46 5.72,13.04 4.80,19.45"/>
        <lane id=":J0_9_1" index="1" speed="11.20" length="28.79" shape="19.45,1.60 11.64,2.72 6.06,6.06 2.72,11.64 1.60,19.45"/>
    </edge>
    <edge id=":J0_11" function="internal">
        <lane id=":J0_11_0" index="0" speed="8.14" length="23.57" shape="19.45,1.60 13.22,0.01 9.69,-4.01 9.34,-9.35 12.62,-14.89"/>
    </edge>
    <edge id=":J0_12" function="internal">
        <lane id=":J0_12_0" index="0" speed="5.47" length="9.74" shape="17.15,-10.36 15.21,-7.93 14.94,-6.19 16.36,-5.15 19.45,-4.80"/>
    </edge>
    <edge id=":J0_13" function="internal">
        <lane id=":J0_13_0" index="0" speed="10.71" length="26.26" shape="17.15,-10.36 12.27,-4.19 10.27,1.70 11.14,7.30 14.89,12.62"/>
    </edge>
    <edge id=":J0_14" function="internal">
        <lane id=":J0_14_0" index="0" speed="13.89" length="33.11" shape="17.15,-10.36 11.75,-3.87 7.89,3.27 5.57,11.04 4.80,19.45"/>
        <lane id=":J0_14_1" index="1" speed="13.89" length="35.63" shape="14.89,-12.62 9.07,-5.64 4.92,2.04 2.43,10.40 1.60,19.45"/>
    </edge>
    <edge id=":J1_0" function="internal">
        <lane id=":J1_0_0" index="0" speed="13.89" length="40.65" shape="119.45,104.80 109.12,103.85 99.58,101.01 90.82,96.27 82.85,89.64"/>
    </edge>
    <edge id=":J1_1" function="internal">
        <lane id=":J1_1_0" index="0" speed="12.57" length="36.57" shape="119.45,104.80 110.24,103.28 103.66,98.74 99.72,91.16 98.40,80.55"/>
    </edge>
    <edge id=":J1_2" function="internal">
        <lane id=":J1_2_0" index="0" speed="8.14" length="23.57" shape="119.45,101.60 113.22,100.01 109.69,95.99 109.34,90.65 112.62,85.11"/>
    </edge>
    <edge id=":J1_3" function="internal">
        <lane id=":J1_3_0" index="0" speed="5.47" length="9.74" shape="117.15,89.64 115.21,92.07 114.94,93.81 116.36,94.85 119.45,95.20"/>
    </edge>
    <edge id=":J1_4" function="internal">
        <lane id=":J1_4_0" index="0" speed="12.99" length="39.11" shape="117.15,89.64 108.57,96.07 100.00,98.21 91.43,96.07 82.85,89.64"/>
        <lane id=":J1_4_1" index="1" speed="12.13" length="33.95" shape="114.89,87.38 107.44,92.96 100.00,94.82 92.56,92.96 85.11,87.38"/>
    </edge>
    <edge id=":J1_6" function="internal">
        <lane id=":J1_6_0" index="0" speed="8.14" length="23.57" shape="114.89,87.38 109.35,90.66 104.01,90.31 99.99,86.78 98.40,80.55"/>
    </edge>
    <edge id=":J1_7" function="internal">
        <lane id=":J1_7_0" index="0" speed="6.53" length="14.55" shape="101.60,80.55 102.15,84.84 103.79,86.66 106.53,85.99 110.36,82.85"/>
    </edge>
    <edge id=":J1_8" function="internal">
        <lane id=":J1_8_0" index="0" speed="11.20" length="28.79" shape="101.60,80.55 102.72,88.36 106.06,93.94 111.64,97.28 119.45,98.40"/>
    </edge>
    <edge id=":J1_9" function="internal">
        <lane id=":J1_9_0" index="0" speed="8.14" length="23.57" shape="101.60,80.55 100.01,86.78 95.99,90.31 90.65,90.66 85.11,87.38"/>
    </edge>
    <edge id=":J1_10" function="internal">
        <lane id=":J1_10_0" index="0" speed="6.53" length="14.55" shape="89.64,82.85 93.47,85.99 96.21,86.66 97.85,84.84 98.40,80.55"/>
    </edge>
    <edge id=":J1_11" function="internal">
        <lane id=":J1_11_0" index="0" speed="10.71" length="26.26" shape="89.64,82.85 95.81,87.73 101.70,89.73 107.30,88.86 112.62,85.11"/>
    </edge>
    <edge id=":J1_12" function="internal">
        <lane id=":J1_12_0" index="0" speed="13.89" length="33.11" shape="89.64,82.85 96.13,88.25 103.27,92.11 111.04,94.43 119.45,95.20"/>
        <lane id=":J1_12_1" index="1" speed="13.89" length="35.63" shape="87.38,85.11 94.36,90.93 102.04,95.08 110.40,97.57 119.45,98.40"/>
    </edge>
    <edge id=":J2_0" function="internal">
        <lane id=":J2_0_0" index="0" speed="13.89" length="40.65" shape="204.80,-19.45 203.85,-9.12 201.01,0.42 196.27,9.18 189.64,17.15"/>
    </edge>
    <edge id=":J2_1" function="internal">
        <lane id=":J2_1_0" index="0" speed="12.99" length="39.11" shape="204.80,-19.45 203.28,-8.84 198.74,-1.26 191.16,3.28 180.55,4.80"/>
        <lane id=":J2_1_1" index="1" speed="12.13" length="33.95" shape="201.60,-19.45 200.28,-10.24 196.34,-3.66 189.76,0.28 180.55,1.60"/>
    </edge>
    <edge id=":J2_3" function="internal">
        <lane id=":J2_3_0" index="0" speed="8.14" length="23.57" shape="201.60,-19.45 200.01,-13.22 195.99,-9.69 190.65,-9.34 185.11,-12.62"/>
    </edge>
    <edge id=":J2_4" function="internal">
        <lane id=":J2_4_0" index="0" speed="5.47" length="9.74" shape="189.64,-17.15 192.07,-15.21 193.81,-14.94 194.85,-16.36 195.20,-19.45"/>
    </edge>
    <edge id=":J2_5" function="internal">
        <lane id=":J2_5_0" index="0" speed="12.99" length="39.11" shape="189.64,-17.15 196.07,-8.57 198.21,0.00 196.07,8.57 189.64,17.15"/>
        <lane id=":J2_5_1" index="1" speed="12.13" length="33.95" shape="187.38,-14.89 192.96,-7.44 194.82,0.00 192.96,7.44 187.38,14.89"/>
    </edge>
    <edge id=":J2_7" function="internal">
        <lane id=":J2_7_0" index="0" speed="8.14" length="23.57" shape="187.38,-14.89 190.66,-9.35 190.31,-4.01 186.78,0.01 180.55,1.60"/>
    </edge>
    <edge id=":J2_8" function="internal">
        <lane id=":J2_8_0" index="0" speed="5.47" length="9.74" shape="180.55,-4.80 183.64,-5.15 185.06,-6.19 184.79,-7.93 182.85,-10.36"/>
    </edge>
    <edge id=":J2_9" function="internal">
        <lane id=":J2_9_0" index="0" speed="10.18" length="23.63" shape="180.55,-4.80 186.96,-5.72 191.54,-8.46 194.28,-13.04 195.20,-19.45"/>
        <lane id=":J2_9_1" index="1" speed="11.20" length="28.79" shape="180.55,-1.60 188.36,-2.72 193.94,-6.06 197.28,-11.64 198.40,-19.45"/>
    </edge>
    <edge id=":J2_11" function="internal">
        <lane id=":J2_11_0" index="0" speed="8.14" length="23.57" shape="180.55,-1.60 186.78,-0.01 190.31,4.01 190.66,9.35 187.38,14.89"/>
    </edge>
    <edge id=":J2_12" function="internal">
        <lane id=":J2_12_0" index="0" speed="5.47" length="9.74" shape="182.85,10.36 184.79,7.93 185.06,6.19 183.64,5.15 180.55,4.80"/>
    </edge>
    <edge id=":J2_13" function="internal">
        <lane id=":J2_13_0" index="0" speed="10.71" length="26.26" shape="182.85,10.36 187.73,4.19 189.73,-1.70 188.86,-7.30 185.11,-12.62"/>
    </edge>
    <edge id=":J2_14" function="internal">
        <lane id=":J2_14_0" index="0" speed="13.89" length="32.92" shape="182.85,10.36 187.76,4.13 191.68,-3.45 194.26,-11.57 195.20,-19.45"/>
        <lane id=":J2_14_1" index="1" speed="13.89" length="35.63" shape="185.11,12.62 190.93,5.64 195.08,-2.04 197.57,-10.40 198.40,-19.45"/>
    </edge>
    <edge id=":J3_0" function="internal">
        <lane id=":J3_0_0" index="0" speed="7.33" length="11.73" shape="98.40,10.40 97.85,7.95 96.20,6.20 93.45,5.15 89.60,4.80"/>
    </edge>
    <edge id=":J3_1" function="internal">
        <lane id=":J3_1_0" index="0" speed="13.89" length="20.96" shape="98.40,10.40 97.90,4.34 96.80,0.00 95.70,-4.34 95.20,-10.40"/>
        <lane id=":J3_1_1" index="1" speed="13.89" length="20.96" shape="98.40,10.40 98.40,-10.40"/>
    </edge>
    <edge id=":J3_3" function="internal">
        <lane id=":J3_3_0" index="0" speed="9.26" length="5.99" shape="98.40,10.40 99.15,5.15 99.51,4.56"/>
    </edge>
    <edge id=":J3_15" function="internal">
        <lane id=":J3_15_0" index="0" speed="9.26" length="13.36" shape="99.51,4.56 101.40,1.40 105.15,-0.85 110.40,-1.60"/>
    </edge>
    <edge id=":J3_4" function="internal">
        <lane id=":J3_4_0" index="0" speed="7.33" length="11.73" shape="110.40,4.80 106.55,5.15 103.80,6.20 102.15,7.95 101.60,10.40"/>
    </edge>
    <edge id=":J3_5" function="internal">
        <lane id=":J3_5_0" index="0" speed="13.89" length="20.80" shape="110.40,4.80 89.60,4.80"/>
        <lane id=":J3_5_1" index="1" speed="13.89" length="20.80" shape="110.40,1.60 89.60,1.60"/>
    </edge>
    <edge id=":J3_7" function="internal">
        <lane id=":J3_7_0" index="0" speed="9.26" length="5.01" shape="110.40,1.60 105.44,0.89"/>
    </edge>
    <edge id=":J3_16" function="internal">
        <lane id=":J3_16_0" index="0" speed="9.26" length="14.34" shape="105.44,0.89 105.15,0.85 101.40,-1.40 99.15,-5.15 98.40,-10.40"/>
    </edge>
    <edge id=":J3_8" function="internal">
        <lane id=":J3_8_0" index="0" speed="6.51" length="9.03" shape="104.80,-10.40 105.15,-7.95 106.20,-6.20 107.95,-5.15 110.40,-4.80"/>
    </edge>
    <edge id=":J3_9" function="internal">
        <lane id=":J3_9_0" index="0" speed="13.89" length="21.12" shape="104.80,-10.40 104.30,-4.34 103.20,-0.00 102.10,4.34 101.60,10.40"/>
    </edge>
    <edge id=":J3_10" function="internal">
        <lane id=":J3_10_0" index="0" speed="9.26" length="5.01" shape="101.60,-10.40 100.89,-5.44"/>
    </edge>
    <edge id=":J3_17" function="internal">
        <lane id=":J3_17_0" index="0" speed="9.26" length="14.34" shape="100.89,-5.44 100.85,-5.15 98.60,-1.40 94.85,0.85 89.60,1.60"/>
    </edge>
    <edge id=":J3_11" function="internal">
        <lane id=":J3_11_0" index="0" speed="6.51" length="9.03" shape="89.60,-4.80 92.05,-5.15 93.80,-6.20 94.85,-7.95 95.20,-10.40"/>
    </edge>
    <edge id=":J3_12" function="internal">
        <lane id=":J3_12_0" index="0" speed="13.89" length="20.80" shape="89.60,-4.80 110.40,-4.80"/>
        <lane id=":J3_12_1" index="1" speed="13.89" length="20.80" shape="89.60,-1.60 110.40,-1.60"/>
    </edge>
    <edge id=":J3_14" function="internal">
        <lane id=":J3_14_0" index="0" speed="9.26" length="5.01" shape="89.60,-1.60 94.56,-0.89"/>
    </edge>
    <edge id=":J3_18" function="internal">
        <lane id=":J3_18_0" index="0" speed="9.26" length="14.34" shape="94.56,-0.89 94.85,-0.85 98.60,1.40 100.85,5.15 101.60,10.40"/>
    </edge>
    <edge id=":J4_0" function="internal">
        <lane id=":J4_0_0" index="0" speed="5.47" length="9.74" shape="95.20,-80.55 94.85,-83.64 93.81,-85.06 92.07,-84.79 89.64,-82.85"/>
    </edge>
    <edge id=":J4_1" function="internal">
        <lane id=":J4_1_0" index="0" speed="10.18" length="23.63" shape="95.20,-80.55 94.28,-86.96 91.54,-91.54 86.96,-94.28 80.55,-95.20"/>
        <lane id=":J4_1_1" index="1" speed="11.20" length="28.79" shape="98.40,-80.55 97.28,-88.36 93.94,-93.94 88.36,-97.28 80.55,-98.40"/>
    </edge>
    <edge id=":J4_3" function="internal">
        <lane id=":J4_3_0" index="0" speed="8.14" length="23.57" shape="98.40,-80.55 99.99,-86.78 104.01,-90.31 109.35,-90.66 114.89,-87.38"/>
    </edge>
    <edge id=":J4_4" function="internal">
        <lane id=":J4_4_0" index="0" speed="5.47" length="9.74" shape="110.36,-82.85 107.93,-84.79 106.19,-85.06 105.15,-83.64 104.80,-80.55"/>
    </edge>
    <edge id=":J4_5" function="internal">
        <lane id=":J4_5_0" index="0" speed="10.71" length="26.26" shape="110.36,-82.85 104.19,-87.73 98.30,-89.73 92.70,-88.86 87.38,-85.11"/>
    </edge>
    <edge id=":J4_6" function="internal">
        <lane id=":J4_6_0" index="0" speed="13.89" length="33.11" shape="110.36,-82.85 103.87,-88.25 96.73,-92.11 88.96,-94.43 80.55,-95.20"/>
        <lane id=":J4_6_1" index="1" speed="13.89" length="35.63" shape="112.62,-85.11 105.64,-90.93 97.96,-95.08 89.60,-97.57 80.55,-98.40"/>
    </edge>
    <edge id=":J4_8" function="internal">
        <lane id=":J4_8_0" index="0" speed="13.89" length="40.65" shape="80.55,-104.80 90.88,-103.85 100.42,-101.01 109.18,-96.27 117.15,-89.64"/>
    </edge>
    <edge id=":J4_9" function="internal">
        <lane id=":J4_9_0" index="0" speed="12.99" length="39.11" shape="80.55,-104.80 91.16,-103.28 98.74,-98.74 103.28,-91.16 104.80,-80.55"/>
        <lane id=":J4_9_1" index="1" speed="12.13" length="33.95" shape="80.55,-101.60 89.76,-100.28 96.34,-96.34 100.28,-89.76 101.60,-80.55"/>
    </edge>
    <edge id=":J4_11" function="internal">
        <lane id=":J4_11_0" index="0" speed="8.14" length="23.57" shape="80.55,-101.60 86.78,-100.01 90.31,-95.99 90.66,-90.65 87.38,-85.11"/>
    </edge>
    <edge id=":J4_12" function="internal">
        <lane id=":J4_12_0" index="0" speed="5.47" length="9.74" shape="82.85,-89.64 84.79,-92.07 85.06,-93.81 83.64,-94.85 80.55,-95.20"/>
    </edge>
    <edge id=":J4_13" function="internal">
        <lane id=":J4_13_0" index="0" speed="12.99" length="39.11" shape="82.85,-89.64 91.43,-96.07 100.00,-98.21 108.57,-96.07 117.15,-89.64"/>
        <lane id=":J4_13_1" index="1" speed="12.13" length="33.95" shape="85.11,-87.38 92.56,-92.96 100.00,-94.82 107.44,-92.96 114.89,-87.38"/>
    </edge>
    <edge id=":J4_15" function="internal">
        <lane id=":J4_15_0" index="0" speed="8.14" length="23.57" shape="85.11,-87.38 90.65,-90.66 95.99,-90.31 100.01,-86.78 101.60,-80.55"/>
    </edge>

    <edge id="-E0" from="J1" to="J0" priority="-1">
        <lane id="-E0_0" index="0" speed="13.89" length="102.52" shape="82.85,89.64 10.36,17.15"/>
        <lane id="-E0_1" index="1" speed="13.89" length="102.52" shape="85.11,87.38 12.62,14.89"/>
    </edge>
    <edge id="-E1" from="J1" to="J2" priority="-1">
        <lane id="-E1_0" index="0" speed="13.89" length="102.52" shape="110.36,82.85 182.85,10.36"/>
        <lane id="-E1_1" index="1" speed="13.89" length="102.52" shape="112.62,85.11 185.11,12.62"/>
    </edge>
    <edge id="-E10" from="J7" to="J2" priority="-1">
        <lane id="-E10_0" index="0" speed="13.89" length="80.55" shape="204.80,-100.00 204.80,-19.45"/>
        <lane id="-E10_1" index="1" speed="13.89" length="80.55" shape="201.60,-100.00 201.60,-19.45"/>
    </edge>
    <edge id="-E11" from="J8" to="J1" priority="-1">
        <lane id="-E11_0" index="0" speed="13.89" length="80.55" shape="200.00,104.80 119.45,104.80"/>
        <lane id="-E11_1" index="1" speed="13.89" length="80.55" shape="200.00,101.60 119.45,101.60"/>
    </edge>
    <edge id="-E12" from="J9" to="J0" priority="-1">
        <lane id="-E12_0" index="0" speed="13.89" length="80.55" shape="-4.80,100.00 -4.80,19.45"/>
        <lane id="-E12_1" index="1" speed="13.89" length="80.55" shape="-1.60,100.00 -1.60,19.45"/>
    </edge>
    <edge id="-E2" from="J1" to="J3" priority="-1">
        <lane id="-E2_0" index="0" speed="13.89" length="70.15" shape="95.20,80.55 95.20,10.40"/>
        <lane id="-E2_1" index="1" speed="13.89" length="70.15" shape="98.40,80.55 98.40,10.40"/>
    </edge>
    <edge id="-E3" from="J3" to="J0" priority="-1">
        <lane id="-E3_0" index="0" speed="13.89" length="70.15" shape="89.60,4.80 19.45,4.80"/>
        <lane id="-E3_1" index="1" speed="13.89" length="70.15" shape="89.60,1.60 19.45,1.60"/>
    </edge>
    <edge id="-E4" from="J2" to="J3" priority="-1">
        <lane id="-E4_0" index="0" speed="13.89" length="70.15" shape="180.55,4.80 110.40,4.80"/>
        <lane id="-E4_1" index="1" speed="13.89" length="70.15" shape="180.55,1.60 110.40,1.60"/>
    </edge>
    <edge id="-E5" from="J4" to="J3" priority="-1">
        <lane id="-E5_0" index="0" speed="13.89" length="70.15" shape="104.80,-80.55 104.80,-10.40"/>
        <lane id="-E5_1" index="1" speed="13.89" length="70.15" shape="101.60,-80.55 101.60,-10.40"/>
    </edge>
    <edge id="-E6" from="J4" to="J0" priority="-1">
        <lane id="-E6_0" index="0" speed="13.89" length="102.52" shape="89.64,-82.85 17.15,-10.36"/>
        <lane id="-E6_1" index="1" speed="13.89" length="102.52" shape="87.38,-85.11 14.89,-12.62"/>
    </edge>
    <edge id="-E7" from="J4" to="J2" priority="-1">
        <lane id="-E7_0" index="0" speed="13.89" length="102.52" shape="117.15,-89.64 189.64,-17.15"/>
        <lane id="-E7_1" index="1" speed="13.89" length="102.52" shape="114.89,-87.38 187.38,-14.89"/>
    </edge>
    <edge id="-E9" from="J6" to="J4" priority="-1">
        <lane id="-E9_0" index="0" speed="13.89" length="80.55" shape="0.00,-104.80 80.55,-104.80"/>
        <lane id="-E9_1" index="1" speed="13.89" length="80.55" shape="0.00,-101.60 80.55,-101.60"/>
    </edge>
    <edge id="E0" from="J0" to="J1" priority="-1">
        <lane id="E0_0" index="0" speed="13.89" length="102.52" shape="17.15,10.36 89.64,82.85"/>
        <lane id="E0_1" index="1" speed="13.89" length="102.52" shape="14.89,12.62 87.38,85.11"/>
    </edge>
    <edge id="E1" from="J2" to="J1" priority="-1">
        <lane id="E1_0" index="0" speed="13.89" length="102.52" shape="189.64,17.15 117.15,89.64"/>
        <lane id="E1_1" index="1" speed="13.89" length="102.52" shape="187.38,14.89 114.89,87.38"/>
    </edge>
    <edge id="E10" from="J2" to="J7" priority="-1">
        <lane id="E10_0" index="0" speed="13.89" length="80.55" shape="195.20,-19.45 195.20,-100.00"/>
        <lane id="E10_1" index="1" speed="13.89" length="80.55" shape="198.40,-19.45 198.40,-100.00"/>
    </edge>
    <edge id="E11" from="J1" to="J8" priority="-1">
        <lane id="E11_0" index="0" speed="13.89" length="80.55" shape="119.45,95.20 200.00,95.20"/>
        <lane id="E11_1" index="1" speed="13.89" length="80.55" shape="119.45,98.40 200.00,98.40"/>
    </edge>
    <edge id="E12" from="J0" to="J9" priority="-1">
        <lane id="E12_0" index="0" speed="13.89" length="80.55" shape="4.80,19.45 4.80,100.00"/>
        <lane id="E12_1" index="1" speed="13.89" length="80.55" shape="1.60,19.45 1.60,100.00"/>
    </edge>
    <edge id="E2" from="J3" to="J1" priority="-1">
        <lane id="E2_0" index="0" speed="13.89" length="70.15" shape="104.80,10.40 104.80,80.55"/>
        <lane id="E2_1" index="1" speed="13.89" length="70.15" shape="101.60,10.40 101.60,80.55"/>
    </edge>
    <edge id="E3" from="J0" to="J3" priority="-1">
        <lane id="E3_0" index="0" speed="13.89" length="70.15" shape="19.45,-4.80 89.60,-4.80"/>
        <lane id="E3_1" index="1" speed="13.89" length="70.15" shape="19.45,-1.60 89.60,-1.60"/>
    </edge>
    <edge id="E4" from="J3" to="J2" priority="-1">
        <lane id="E4_0" index="0" speed="13.89" length="70.15" shape="110.40,-4.80 180.55,-4.80"/>
        <lane id="E4_1" index="1" speed="13.89" length="70.15" shape="110.40,-1.60 180.55,-1.60"/>
    </edge>
    <edge id="E5" from="J3" to="J4" priority="-1">
        <lane id="E5_0" index="0" speed="13.89" length="70.15" shape="95.20,-10.40 95.20,-80.55"/>
        <lane id="E5_1" index="1" speed="13.89" length="70.15" shape="98.40,-10.40 98.40,-80.55"/>
    </edge>
    <edge id="E6" from="J0" to="J4" priority="-1">
        <lane id="E6_0" index="0" speed="13.89" length="102.52" shape="10.36,-17.15 82.85,-89.64"/>
        <lane id="E6_1" index="1" speed="13.89" length="102.52" shape="12.62,-14.89 85.11,-87.38"/>
    </edge>
    <edge id="E7" from="J2" to="J4" priority="-1">
        <lane id="E7_0" index="0" speed="13.89" length="102.52" shape="182.85,-10.36 110.36,-82.85"/>
        <lane id="E7_1" index="1" speed="13.89" length="102.52" shape="185.11,-12.62 112.62,-85.11"/>
    </edge>
    <edge id="E9" from="J4" to="J6" priority="-1">
        <lane id="E9_0" index="0" speed="13.89" length="80.55" shape="80.55,-95.20 0.00,-95.20"/>
        <lane id="E9_1" index="1" speed="13.89" length="80.55" shape="80.55,-98.40 0.00,-98.40"/>
    </edge>

    <tlLogic id="J0" type="static" programID="0" offset="0">
        <phase duration="17" state="GrrrrrrrrrrrGGGG"/>
        <phase duration="3"  state="Grrrrrrrrrrryyyy"/>
        <phase duration="19" state="GGGGGrrrrrrrrrrr"/>
        <phase duration="3"  state="yyyyyrrrrrrrrrrr"/>
        <phase duration="3"  state="rrrrrrrrrrrrrrrr"/>
        <phase duration="19" state="rrrrrrrrGGGGGrrr"/>
        <phase duration="3"  state="rrrrrrrrGyyyyrrr"/>
        <phase duration="19" state="rrrrGGGGGrrrrrrr"/>
        <phase duration="3"  state="rrrryyyyyrrrrrrr"/>
        <phase duration="1"  state="rrrrrrrrrrrrrrrr"/>
    </tlLogic>
    <tlLogic id="J1" type="static" programID="0" offset="0">
        <phase duration="17" state="GrrrrrrrrrGGGG"/>
        <phase duration="3"  state="Grrrrrrrrryyyy"/>
        <phase duration="19" state="GGGGrrrrrrrrrr"/>
        <phase duration="3"  state="yyyyrrrrrrrrrr"/>
        <phase duration="3"  state="rrrrrrrrrrrrrr"/>
        <phase duration="19" state="rrrrrrrGGGGrrr"/>
        <phase duration="3"  state="rrrrrrrGyyyrrr"/>
        <phase duration="19" state="rrrGGGGGrrrrrr"/>
        <phase duration="3"  state="rrryyyyyrrrrrr"/>
        <phase duration="1"  state="rrrrrrrrrrrrrr"/>
    </tlLogic>
    <tlLogic id="J2" type="static" programID="0" offset="0">
        <phase duration="17" state="GGGGGrrrrrrrrrrr"/>
        <phase duration="3"  state="yyyyyrrrrrrrrrrr"/>
        <phase duration="3"  state="rrrrrrrrrrrrrrrr"/>
        <phase duration="19" state="GrrrrrrrrrrrGGGG"/>
        <phase duration="3"  state="yrrrrrrrrrrrGyyy"/>
        <phase duration="19" state="rrrrrrrrGGGGGrrr"/>
        <phase duration="3"  state="rrrrrrrrGyyyyrrr"/>
        <phase duration="19" state="rrrrGGGGGrrrrrrr"/>
        <phase duration="3"  state="rrrryyyyyrrrrrrr"/>
        <phase duration="1"  state="rrrrrrrrrrrrrrrr"/>
    </tlLogic>
    <tlLogic id="J3" type="static" programID="0" offset="0">
        <phase duration="38" state="GGGgrrrrGGgrrrr"/>
        <phase duration="3"  state="yyygrrrryygrrrr"/>
        <phase duration="6"  state="rrrGrrrrrrGrrrr"/>
        <phase duration="3"  state="rrryrrrrrryrrrr"/>
        <phase duration="37" state="rrrrGGGgrrrGGGg"/>
        <phase duration="3"  state="rrrryyyyrrryyyy"/>
    </tlLogic>
    <tlLogic id="J4" type="static" programID="0" offset="0">
        <phase duration="17" state="rrrrGGGGGrrrrrrr"/>
        <phase duration="3"  state="rrrryyyyGrrrrrrr"/>
        <phase duration="19" state="rrrrrrrrGGGGGrrr"/>
        <phase duration="3"  state="rrrrrrrryyyyyrrr"/>
        <phase duration="3"  state="rrrrrrrrrrrrrrrr"/>
        <phase duration="19" state="GrrrrrrrrrrrGGGG"/>
        <phase duration="3"  state="yrrrrrrrrrrryyyy"/>
        <phase duration="1"  state="rrrrrrrrrrrrrrrr"/>
        <phase duration="19" state="GGGGGrrrrrrrrrrr"/>
        <phase duration="3"  state="yyyyGrrrrrrrrrrr"/>
    </tlLogic>

    <junction id="J0" type="traffic_light" x="0.00" y="0.00" incLanes="-E12_0 -E12_1 -E0_0 -E0_1 -E3_0 -E3_1 -E6_0 -E6_1" intLanes=":J0_0_0 :J0_1_0 :J0_1_1 :J0_3_0 :J0_4_0 :J0_5_0 :J0_5_1 :J0_7_0 :J0_8_0 :J0_9_0 :J0_9_1 :J0_11_0 :J0_12_0 :J0_13_0 :J0_14_0 :J0_14_1" shape="-6.40,19.45 6.40,19.45 6.71,17.54 7.11,17.16 7.66,17.15 8.36,17.53 9.23,18.28 18.28,9.23 17.15,7.66 17.16,7.11 17.54,6.71 18.31,6.48 19.45,6.40 19.45,-6.40 17.54,-6.71 17.16,-7.11 17.15,-7.66 17.53,-8.36 18.28,-9.23 9.23,-18.28 4.45,-12.89 0.55,-7.14 -2.49,-1.03 -4.66,5.44 -5.97,12.26">
        <request index="0"  response="0000000000000000" foes="0000000001100000" cont="0"/>
        <request index="1"  response="1111000000000000" foes="1111100011100000" cont="0"/>
        <request index="2"  response="1111000000000000" foes="1111100011100000" cont="0"/>
        <request index="3"  response="1110000000000000" foes="1110011011100000" cont="0"/>
        <request index="4"  response="1100000000000000" foes="1100011000000000" cont="0"/>
        <request index="5"  response="1100000000001111" foes="1100111000001111" cont="0"/>
        <request index="6"  response="1100000000001111" foes="1100111000001111" cont="0"/>
        <request index="7"  response="0010000000001110" foes="0010111000001110" cont="0"/>
        <request index="8"  response="0000000000000000" foes="0000000000000000" cont="0"/>
        <request index="9"  response="1110000011111000" foes="1110000011111000" cont="0"/>
        <request index="10" response="1110000011111000" foes="1110000011111000" cont="0"/>
        <request index="11" response="1110000011100110" foes="1110000011100110" cont="0"/>
        <request index="12" response="0000000000000000" foes="0000000000000110" cont="0"/>
        <request index="13" response="0000000000000000" foes="0000111010001110" cont="0"/>
        <request index="14" response="0000000000000000" foes="0000111001111110" cont="0"/>
        <request index="15" response="0000000000000000" foes="0000111001111110" cont="0"/>
    </junction>
    <junction id="J1" type="traffic_light" x="100.00" y="100.00" incLanes="-E11_0 -E11_1 E1_0 E1_1 E2_0 E2_1 E0_0 E0_1" intLanes=":J1_0_0 :J1_1_0 :J1_2_0 :J1_3_0 :J1_4_0 :J1_4_1 :J1_6_0 :J1_7_0 :J1_8_0 :J1_9_0 :J1_10_0 :J1_11_0 :J1_12_0 :J1_12_1" shape="119.45,106.40 119.45,93.60 117.54,93.29 117.16,92.89 117.15,92.34 117.53,91.64 118.28,90.77 109.23,81.72 107.66,82.85 107.11,82.84 106.71,82.46 106.48,81.69 106.40,80.55 93.60,80.55 93.29,82.46 92.89,82.84 92.34,82.85 91.64,82.47 90.77,81.72 81.72,90.77 87.11,95.55 92.86,99.45 98.97,102.49 105.44,104.66 112.26,105.97">
        <request index="0"  response="00000000000000" foes="00000000110000" cont="0"/>
        <request index="1"  response="11110000000000" foes="11111001110000" cont="0"/>
        <request index="2"  response="11100000000000" foes="11100101110000" cont="0"/>
        <request index="3"  response="11000000000000" foes="11000000000000" cont="0"/>
        <request index="4"  response="11000000000111" foes="11001100000111" cont="0"/>
        <request index="5"  response="11000000000111" foes="11001100000111" cont="0"/>
        <request index="6"  response="00110000000110" foes="00111100000110" cont="0"/>
        <request index="7"  response="00000000000000" foes="00000000000000" cont="0"/>
        <request index="8"  response="11100001110100" foes="11100001110100" cont="0"/>
        <request index="9"  response="11100001110010" foes="11100001110010" cont="0"/>
        <request index="10" response="00000000000000" foes="00000001000010" cont="0"/>
        <request index="11" response="00000000000000" foes="00001101000110" cont="0"/>
        <request index="12" response="00000000000000" foes="00001100111110" cont="0"/>
        <request index="13" response="00000000000000" foes="00001100111110" cont="0"/>
    </junction>
    <junction id="J2" type="traffic_light" x="200.00" y="0.00" incLanes="-E10_0 -E10_1 -E7_0 -E7_1 E4_0 E4_1 -E1_0 -E1_1" intLanes=":J2_0_0 :J2_1_0 :J2_1_1 :J2_3_0 :J2_4_0 :J2_5_0 :J2_5_1 :J2_7_0 :J2_8_0 :J2_9_0 :J2_9_1 :J2_11_0 :J2_12_0 :J2_13_0 :J2_14_0 :J2_14_1" shape="206.40,-19.45 193.60,-19.45 193.29,-17.54 192.89,-17.16 192.34,-17.15 191.64,-17.53 190.77,-18.28 181.72,-9.23 182.85,-7.66 182.84,-7.11 182.46,-6.71 181.69,-6.48 180.55,-6.40 180.55,6.40 182.46,6.71 182.84,7.11 182.85,7.66 182.47,8.36 181.72,9.23 190.77,18.28 195.55,12.89 199.45,7.14 202.49,1.03 204.66,-5.44 205.97,-12.26">
        <request index="0"  response="0000000000000000" foes="0000000001100000" cont="0"/>
        <request index="1"  response="1111000000000000" foes="1111100011100000" cont="0"/>
        <request index="2"  response="1111000000000000" foes="1111100011100000" cont="0"/>
        <request index="3"  response="1110000000000000" foes="1110011011100000" cont="0"/>
        <request index="4"  response="1100000000000000" foes="1100011000000000" cont="0"/>
        <request index="5"  response="1100000000001111" foes="1100111000001111" cont="0"/>
        <request index="6"  response="1100000000001111" foes="1100111000001111" cont="0"/>