<?xml version="1.0" encoding="UTF-8"?>

<!-- generated on 2025-08-15 17:10:31 by Eclipse SUMO netedit Version 1.19.0
-->

<routes xmlns:xsi="http://www.w3.org/2001/XMLSchema-instance" xsi:noNamespaceSchemaLocation="http://sumo.dlr.de/xsd/routes_file.xsd">
    <!-- Vehicles, persons and containers (sorted by depart) -->
    <flow id="veh1" begin="0.00" from="-E9" to="E11" via="-E7 E1" end="3600.00" vehsPerHour="1800"/>
    <flow id="veh2" begin="0.00" color="green" from="-E10" to="E12" via="E7 -E5 -E3" end="3600.00" vehsPerHour="1800"/>
    <flow id="veh3" begin="0.00" color="cyan" from="E6" to="E11" via="-E5 E2" end="3600.00" vehsPerHour="1800"/>
    <flow id="veh4" begin="0.00" color="0,0,128" from="-E5" to="E12" via="-E3" number="1800" vehsPerHour="1800"/>
    <flow id="veh6" begin="0.00" color="red" from="-E11" to="E12" via="-E0" number="1800" vehsPerHour="1800"/>
    <flow id="veh7" begin="0.00" color="0,128,128" from="-E12" to="E9" via="E3 E5" number="1800" vehsPerHour="1800"/>
</routes>
