<?xml version="1.0" encoding="UTF-8"?>

<!-- generated on 2025-08-13 19:21:05 by Eclipse SUMO netgenerate Version 1.24.0
<netgenerateConfiguration xmlns:xsi="http://www.w3.org/2001/XMLSchema-instance" xsi:noNamespaceSchemaLocation="http://sumo.dlr.de/xsd/netgenerateConfiguration.xsd">

    <grid_network>
        <grid value="true"/>
        <grid.length value="120"/>
        <grid.x-number value="6"/>
        <grid.y-number value="6"/>
    </grid_network>

    <output>
        <output-file value="sumo/scenarios/rushhour/net.net.xml"/>
    </output>

    <building_defaults>
        <default.lanenumber value="2"/>
        <default-junction-type value="traffic_light"/>
    </building_defaults>

    <tls_building>
        <tls.default-type value="static"/>
    </tls_building>

</netgenerateConfiguration>
-->

<net version="1.20" junctionCornerDetail="5" limitTurnSpeed="5.50" xmlns:xsi="http://www.w3.org/2001/XMLSchema-instance" xsi:noNamespaceSchemaLocation="http://sumo.dlr.de/xsd/net_file.xsd">

    <location netOffset="0.00,0.00" convBoundary="0.00,0.00,600.00,600.00" origBoundary="0.00,0.00,600.00,600.00" projParameter="!"/>

    <edge id=":A0_0" function="internal">
        <lane id=":A0_0_0" index="0" speed="8.96" length="18.06" shape="-4.80,6.40 -4.10,1.50 -2.00,-2.00 1.50,-4.10 6.40,-4.80"/>
        <lane id=":A0_0_1" index="1" speed="7.66" length="12.90" shape="-1.60,6.40 -1.10,2.90 0.40,0.40 2.90,-1.10 6.40,-1.60"/>
    </edge>
    <edge id=":A0_2" function="internal">
        <lane id=":A0_2_0" index="0" speed="3.90" length="2.58" shape="6.40,4.80 5.70,4.90 5.20,5.20 4.90,5.70 4.80,6.40"/>
        <lane id=":A0_2_1" index="1" speed="6.08" length="7.74" shape="6.40,1.60 4.30,1.90 2.80,2.80 1.90,4.30 1.60,6.40"/>
    </edge>
    <edge id=":A1_0" function="internal">
        <lane id=":A1_0_0" index="0" speed="13.89" length="20.80" shape="-4.80,130.40 -4.80,109.60"/>
        <lane id=":A1_0_1" index="1" speed="13.89" length="20.80" shape="-1.60,130.40 -1.60,109.60"/>
    </edge>
    <edge id=":A1_2" function="internal">
        <lane id=":A1_2_0" index="0" speed="9.26" length="5.01" shape="-1.60,130.40 -0.89,125.44"/>
    </edge>
    <edge id=":A1_3" function="internal">
        <lane id=":A1_3_0" index="0" speed="3.65" length="1.44" shape="-1.60,130.40 -0.80,129.20"/>
    </edge>
    <edge id=":A1_12" function="internal">
        <lane id=":A1_12_0" index="0" speed="9.26" length="14.34" shape="-0.89,125.44 -0.85,125.15 1.40,121.40 5.15,119.15 10.40,118.40"/>
    </edge>
    <edge id=":A1_13" function="internal">
        <lane id=":A1_13_0" index="0" speed="3.65" length="3.23" shape="-0.80,129.20 0.00,128.80 0.80,129.20 1.60,130.40"/>
    </edge>
    <edge id=":A1_4" function="internal">
        <lane id=":A1_4_0" index="0" speed="6.51" length="9.03" shape="10.40,124.80 7.95,125.15 6.20,126.20 5.15,127.95 4.80,130.40"/>
        <lane id=":A1_4_1" index="1" speed="8.00" length="14.19" shape="10.40,121.60 6.55,122.15 3.80,123.80 2.15,126.55 1.60,130.40"/>
    </edge>
    <edge id=":A1_6" function="internal">
        <lane id=":A1_6_0" index="0" speed="9.26" length="19.35" shape="10.40,121.60 5.15,120.85 1.40,118.60 -0.85,114.85 -1.60,109.60"/>
    </edge>
    <edge id=":A1_7" function="internal">
        <lane id=":A1_7_0" index="0" speed="3.65" length="2.34" shape="10.40,121.60 9.20,120.80 8.80,120.00"/>
    </edge>
    <edge id=":A1_14" function="internal">
        <lane id=":A1_14_0" index="0" speed="3.65" length="2.34" shape="8.80,120.00 9.20,119.20 10.40,118.40"/>
    </edge>
    <edge id=":A1_8" function="internal">
        <lane id=":A1_8_0" index="0" speed="6.51" length="9.03" shape="4.80,109.60 5.15,112.05 6.20,113.80 7.95,114.85 10.40,115.20"/>
    </edge>
    <edge id=":A1_9" function="internal">
        <lane id=":A1_9_0" index="0" speed="13.89" length="20.80" shape="4.80,109.60 4.80,130.40"/>
        <lane id=":A1_9_1" index="1" speed="13.89" length="20.80" shape="1.60,109.60 1.60,130.40"/>
    </edge>
    <edge id=":A1_11" function="internal">
        <lane id=":A1_11_0" index="0" speed="3.65" length="1.44" shape="1.60,109.60 0.80,110.80"/>
    </edge>
    <edge id=":A1_15" function="internal">
        <lane id=":A1_15_0" index="0" speed="3.65" length="3.23" shape="0.80,110.80 0.00,111.20 -0.80,110.80 -1.60,109.60"/>
    </edge>
    <edge id=":A2_0" function="internal">
        <lane id=":A2_0_0" index="0" speed="13.89" length="20.80" shape="-4.80,250.40 -4.80,229.60"/>
        <lane id=":A2_0_1" index="1" speed="13.89" length="20.80" shape="-1.60,250.40 -1.60,229.60"/>
    </edge>
    <edge id=":A2_2" function="internal">
        <lane id=":A2_2_0" index="0" speed="9.26" length="5.01" shape="-1.60,250.40 -0.89,245.44"/>
    </edge>
    <edge id=":A2_3" function="internal">
        <lane id=":A2_3_0" index="0" speed="3.65" length="1.44" shape="-1.60,250.40 -0.80,249.20"/>
    </edge>
    <edge id=":A2_12" function="internal">
        <lane id=":A2_12_0" index="0" speed="9.26" length="14.34" shape="-0.89,245.44 -0.85,245.15 1.40,241.40 5.15,239.15 10.40,238.40"/>
    </edge>
    <edge id=":A2_13" function="internal">
        <lane id=":A2_13_0" index="0" speed="3.65" length="3.23" shape="-0.80,249.20 0.00,248.80 0.80,249.20 1.60,250.40"/>
    </edge>
    <edge id=":A2_4" function="internal">
        <lane id=":A2_4_0" index="0" speed="6.51" length="9.03" shape="10.40,244.80 7.95,245.15 6.20,246.20 5.15,247.95 4.80,250.40"/>
        <lane id=":A2_4_1" index="1" speed="8.00" length="14.19" shape="10.40,241.60 6.55,242.15 3.80,243.80 2.15,246.55 1.60,250.40"/>
    </edge>
    <edge id=":A2_6" function="internal">
        <lane id=":A2_6_0" index="0" speed="9.26" length="19.35" shape="10.40,241.60 5.15,240.85 1.40,238.60 -0.85,234.85 -1.60,229.60"/>
    </edge>
    <edge id=":A2_7" function="internal">
        <lane id=":A2_7_0" index="0" speed="3.65" length="2.34" shape="10.40,241.60 9.20,240.80 8.80,240.00"/>
    </edge>
    <edge id=":A2_14" function="internal">
        <lane id=":A2_14_0" index="0" speed="3.65" length="2.34" shape="8.80,240.00 9.20,239.20 10.40,238.40"/>
    </edge>
    <edge id=":A2_8" function="internal">
        <lane id=":A2_8_0" index="0" speed="6.51" length="9.03" shape="4.80,229.60 5.15,232.05 6.20,233.80 7.95,234.85 10.40,235.20"/>
    </edge>
    <edge id=":A2_9" function="internal">
        <lane id=":A2_9_0" index="0" speed="13.89" length="20.80" shape="4.80,229.60 4.80,250.40"/>
        <lane id=":A2_9_1" index="1" speed="13.89" length="20.80" shape="1.60,229.60 1.60,250.40"/>
    </edge>
    <edge id=":A2_11" function="internal">
        <lane id=":A2_11_0" index="0" speed="3.65" length="1.44" shape="1.60,229.60 0.80,230.80"/>
    </edge>
    <edge id=":A2_15" function="internal">
        <lane id=":A2_15_0" index="0" speed="3.65" length="3.23" shape="0.80,230.80 0.00,231.20 -0.80,230.80 -1.60,229.60"/>
    </edge>
    <edge id=":A3_0" function="internal">
        <lane id=":A3_0_0" index="0" speed="13.89" length="20.80" shape="-4.80,370.40 -4.80,349.60"/>
        <lane id=":A3_0_1" index="1" speed="13.89" length="20.80" shape="-1.60,370.40 -1.60,349.60"/>
    </edge>
    <edge id=":A3_2" function="internal">
        <lane id=":A3_2_0" index="0" speed="9.26" length="5.01" shape="-1.60,370.40 -0.89,365.44"/>
    </edge>
    <edge id=":A3_3" function="internal">
        <lane id=":A3_3_0" index="0" speed="3.65" length="1.44" shape="-1.60,370.40 -0.80,369.20"/>
    </edge>
    <edge id=":A3_12" function="internal">
        <lane id=":A3_12_0" index="0" speed="9.26" length="14.34" shape="-0.89,365.44 -0.85,365.15 1.40,361.40 5.15,359.15 10.40,358.40"/>
    </edge>
    <edge id=":A3_13" function="internal">
        <lane id=":A3_13_0" index="0" speed="3.65" length="3.23" shape="-0.80,369.20 0.00,368.80 0.80,369.20 1.60,370.40"/>
    </edge>
    <edge id=":A3_4" function="internal">
        <lane id=":A3_4_0" index="0" speed="6.51" length="9.03" shape="10.40,364.80 7.95,365.15 6.20,366.20 5.15,367.95 4.80,370.40"/>
        <lane id=":A3_4_1" index="1" speed="8.00" length="14.19" shape="10.40,361.60 6.55,362.15 3.80,363.80 2.15,366.55 1.60,370.40"/>
    </edge>
    <edge id=":A3_6" function="internal">
        <lane id=":A3_6_0" index="0" speed="9.26" length="19.35" shape="10.40,361.60 5.15,360.85 1.40,358.60 -0.85,354.85 -1.60,349.60"/>
    </edge>
    <edge id=":A3_7" function="internal">
        <lane id=":A3_7_0" index="0" speed="3.65" length="2.34" shape="10.40,361.60 9.20,360.80 8.80,360.00"/>
    </edge>
    <edge id=":A3_14" function="internal">
        <lane id=":A3_14_0" index="0" speed="3.65" length="2.34" shape="8.80,360.00 9.20,359.20 10.40,358.40"/>
    </edge>
    <edge id=":A3_8" function="internal">
        <lane id=":A3_8_0" index="0" speed="6.51" length="9.03" shape="4.80,349.60 5.15,352.05 6.20,353.80 7.95,354.85 10.40,355.20"/>
    </edge>
    <edge id=":A3_9" function="internal">
        <lane id=":A3_9_0" index="0" speed="13.89" length="20.80" shape="4.80,349.60 4.80,370.40"/>
        <lane id=":A3_9_1" index="1" speed="13.89" length="20.80" shape="1.60,349.60 1.60,370.40"/>
    </edge>
    <edge id=":A3_11" function="internal">
        <lane id=":A3_11_0" index="0" speed="3.65" length="1.44" shape="1.60,349.60 0.80,350.80"/>
    </edge>
    <edge id=":A3_15" function="internal">
        <lane id=":A3_15_0" index="0" speed="3.65" length="3.23" shape="0.80,350.80 0.00,351.20 -0.80,350.80 -1.60,349.60"/>
    </edge>
    <edge id=":A4_0" function="internal">
        <lane id=":A4_0_0" index="0" speed="13.89" length="20.80" shape="-4.80,490.40 -4.80,469.60"/>
        <lane id=":A4_0_1" index="1" speed="13.89" length="20.80" shape="-1.60,490.40 -1.60,469.60"/>
    </edge>
    <edge id=":A4_2" function="internal">
        <lane id=":A4_2_0" index="0" speed="9.26" length="5.01" shape="-1.60,490.40 -0.89,485.44"/>
    </edge>
    <edge id=":A4_3" function="internal">
        <lane id=":A4_3_0" index="0" speed="3.65" length="1.44" shape="-1.60,490.40 -0.80,489.20"/>
    </edge>
    <edge id=":A4_12" function="internal">
        <lane id=":A4_12_0" index="0" speed="9.26" length="14.34" shape="-0.89,485.44 -0.85,485.15 1.40,481.40 5.15,479.15 10.40,478.40"/>
    </edge>
    <edge id=":A4_13" function="internal">
        <lane id=":A4_13_0" index="0" speed="3.65" length="3.23" shape="-0.80,489.20 0.00,488.80 0.80,489.20 1.60,490.40"/>
    </edge>
    <edge id=":A4_4" function="internal">
        <lane id=":A4_4_0" index="0" speed="6.51" length="9.03" shape="10.40,484.80 7.95,485.15 6.20,486.20 5.15,487.95 4.80,490.40"/>
        <lane id=":A4_4_1" index="1" speed="8.00" length="14.19" shape="10.40,481.60 6.55,482.15 3.80,483.80 2.15,486.55 1.60,490.40"/>
    </edge>
    <edge id=":A4_6" function="internal">
        <lane id=":A4_6_0" index="0" speed="9.26" length="19.35" shape="10.40,481.60 5.15,480.85 1.40,478.60 -0.85,474.85 -1.60,469.60"/>
    </edge>
    <edge id=":A4_7" function="internal">
        <lane id=":A4_7_0" index="0" speed="3.65" length="2.34" shape="10.40,481.60 9.20,480.80 8.80,480.00"/>
    </edge>
    <edge id=":A4_14" function="internal">
        <lane id=":A4_14_0" index="0" speed="3.65" length="2.34" shape="8.80,480.00 9.20,479.20 10.40,478.40"/>
    </edge>
    <edge id=":A4_8" function="internal">
        <lane id=":A4_8_0" index="0" speed="6.51" length="9.03" shape="4.80,469.60 5.15,472.05 6.20,473.80 7.95,474.85 10.40,475.20"/>
    </edge>
    <edge id=":A4_9" function="internal">
        <lane id=":A4_9_0" index="0" speed="13.89" length="20.80" shape="4.80,469.60 4.80,490.40"/>
        <lane id=":A4_9_1" index="1" speed="13.89" length="20.80" shape="1.60,469.60 1.60,490.40"/>
    </edge>
    <edge id=":A4_11" function="internal">
        <lane id=":A4_11_0" index="0" speed="3.65" length="1.44" shape="1.60,469.60 0.80,470.80"/>
    </edge>
    <edge id=":A4_15" function="internal">
        <lane id=":A4_15_0" index="0" speed="3.65" length="3.23" shape="0.80,470.80 0.00,471.20 -0.80,470.80 -1.60,469.60"/>
    </edge>
    <edge id=":A5_0" function="internal">
        <lane id=":A5_0_0" index="0" speed="8.96" length="18.06" shape="6.40,604.80 1.50,604.10 -2.00,602.00 -4.10,598.50 -4.80,593.60"/>
        <lane id=":A5_0_1" index="1" speed="7.66" length="12.90" shape="6.40,601.60 2.90,601.10 0.40,599.60 -1.10,597.10 -1.60,593.60"/>
    </edge>
    <edge id=":A5_2" function="internal">
        <lane id=":A5_2_0" index="0" speed="3.90" length="2.58" shape="4.80,593.60 4.90,594.30 5.20,594.80 5.70,595.10 6.40,595.20"/>
        <lane id=":A5_2_1" index="1" speed="6.08" length="7.74" shape="1.60,593.60 1.90,595.70 2.80,597.20 4.30,598.10 6.40,598.40"/>
    </edge>
    <edge id=":B0_0" function="internal">
        <lane id=":B0_0_0" index="0" speed="6.51" length="9.03" shape="115.20,10.40 114.85,7.95 113.80,6.20 112.05,5.15 109.60,4.80"/>
        <lane id=":B0_0_1" index="1" speed="8.00" length="14.19" shape="118.40,10.40 117.85,6.55 116.20,3.80 113.45,2.15 109.60,1.60"/>
    </edge>
    <edge id=":B0_2" function="internal">
        <lane id=":B0_2_0" index="0" speed="9.26" length="19.35" shape="118.40,10.40 119.15,5.15 121.40,1.40 125.15,-0.85 130.40,-1.60"/>
    </edge>
    <edge id=":B0_3" function="internal">
        <lane id=":B0_3_0" index="0" speed="3.65" length="2.34" shape="118.40,10.40 119.20,9.20 120.00,8.80"/>
    </edge>
    <edge id=":B0_12" function="internal">
        <lane id=":B0_12_0" index="0" speed="3.65" length="2.34" shape="120.00,8.80 120.80,9.20 121.60,10.40"/>
    </edge>
    <edge id=":B0_4" function="internal">
        <lane id=":B0_4_0" index="0" speed="6.51" length="9.03" shape="130.40,4.80 127.95,5.15 126.20,6.20 125.15,7.95 124.80,10.40"/>
    </edge>
    <edge id=":B0_5" function="internal">
        <lane id=":B0_5_0" index="0" speed="13.89" length="20.80" shape="130.40,4.80 109.60,4.80"/>
        <lane id=":B0_5_1" index="1" speed="13.89" length="20.80" shape="130.40,1.60 109.60,1.60"/>
    </edge>
    <edge id=":B0_7" function="internal">
        <lane id=":B0_7_0" index="0" speed="3.65" length="1.44" shape="130.40,1.60 129.20,0.80"/>
    </edge>
    <edge id=":B0_13" function="internal">
        <lane id=":B0_13_0" index="0" speed="3.65" length="3.23" shape="129.20,0.80 128.80,0.00 129.20,-0.80 130.40,-1.60"/>
    </edge>
    <edge id=":B0_8" function="internal">
        <lane id=":B0_8_0" index="0" speed="13.89" length="20.80" shape="109.60,-4.80 130.40,-4.80"/>
        <lane id=":B0_8_1" index="1" speed="13.89" length="20.80" shape="109.60,-1.60 130.40,-1.60"/>
    </edge>
    <edge id=":B0_10" function="internal">
        <lane id=":B0_10_0" index="0" speed="9.26" length="5.01" shape="109.60,-1.60 114.56,-0.89"/>
    </edge>
    <edge id=":B0_11" function="internal">
        <lane id=":B0_11_0" index="0" speed="3.65" length="1.44" shape="109.60,-1.60 110.80,-0.80"/>
    </edge>
    <edge id=":B0_14" function="internal">
        <lane id=":B0_14_0" index="0" speed="9.26" length="14.34" shape="114.56,-0.89 114.85,-0.85 118.60,1.40 120.85,5.15 121.60,10.40"/>
    </edge>
    <edge id=":B0_15" function="internal">
        <lane id=":B0_15_0" index="0" speed="3.65" length="3.23" shape="110.80,-0.80 111.20,0.00 110.80,0.80 109.60,1.60"/>
    </edge>
    <edge id=":B1_0" function="internal">
        <lane id=":B1_0_0" index="0" speed="6.51" length="9.03" shape="115.20,130.40 114.85,127.95 113.80,126.20 112.05,125.15 109.60,124.80"/>
    </edge>
    <edge id=":B1_1" function="internal">
        <lane id=":B1_1_0" index="0" speed="13.89" length="20.80" shape="115.20,130.40 115.20,109.60"/>
        <lane id=":B1_1_1" index="1" speed="13.89" length="20.80" shape="118.40,130.40 118.40,109.60"/>
    </edge>
    <edge id=":B1_3" function="internal">
        <lane id=":B1_3_0" index="0" speed="9.26" length="5.01" shape="118.40,130.40 119.11,125.44"/>
    </edge>
    <edge id=":B1_4" function="internal">
        <lane id=":B1_4_0" index="0" speed="3.65" length="1.44" shape="118.40,130.40 119.20,129.20"/>
    </edge>
    <edge id=":B1_20" function="internal">
        <lane id=":B1_20_0" index="0" speed="9.26" length="14.34" shape="119.11,125.44 119.15,125.15 121.40,121.40 125.15,119.15 130.40,118.40"/>
    </edge>
    <edge id=":B1_21" function="internal">
        <lane id=":B1_21_0" index="0" speed="3.65" length="3.23" shape="119.20,129.20 120.00,128.80 120.80,129.20 121.60,130.40"/>
    </edge>
    <edge id=":B1_5" function="internal">
        <lane id=":B1_5_0" index="0" speed="6.51" length="9.03" shape="130.40,124.80 127.95,125.15 126.20,126.20 125.15,127.95 124.80,130.40"/>
    </edge>
    <edge id=":B1_6" function="internal">
        <lane id=":B1_6_0" index="0" speed="13.89" length="20.80" shape="130.40,124.80 109.60,124.80"/>
        <lane id=":B1_6_1" index="1" speed="13.89" length="20.80" shape="130.40,121.60 109.60,121.60"/>
    </edge>
    <edge id=":B1_8" function="internal">
        <lane id=":B1_8_0" index="0" speed="9.26" length="5.01" shape="130.40,121.60 125.44,120.89"/>
    </edge>
    <edge id=":B1_9" function="internal">
        <lane id=":B1_9_0" index="0" speed="3.65" length="1.44" shape="130.40,121.60 129.20,120.80"/>
    </edge>
    <edge id=":B1_22" function="internal">
        <lane id=":B1_22_0" index="0" speed="9.26" length="14.34" shape="125.44,120.89 125.15,120.85 121.40,118.60 119.15,114.85 118.40,109.60"/>
    </edge>
    <edge id=":B1_23" function="internal">
        <lane id=":B1_23_0" index="0" speed="3.65" length="3.23" shape="129.20,120.80 128.80,120.00 129.20,119.20 130.40,118.40"/>
    </edge>
    <edge id=":B1_10" function="internal">
        <lane id=":B1_10_0" index="0" speed="6.51" length="9.03" shape="124.80,109.60 125.15,112.05 126.20,113.80 127.95,114.85 130.40,115.20"/>
    </edge>
    <edge id=":B1_11" function="internal">
        <lane id=":B1_11_0" index="0" speed="13.89" length="20.80" shape="124.80,109.60 124.80,130.40"/>
        <lane id=":B1_11_1" index="1" speed="13.89" length="20.80" shape="121.60,109.60 121.60,130.40"/>
    </edge>
    <edge id=":B1_13" function="internal">
        <lane id=":B1_13_0" index="0" speed="9.26" length="5.01" shape="121.60,109.60 120.89,114.56"/>
    </edge>
    <edge id=":B1_14" function="internal">
        <lane id=":B1_14_0" index="0" speed="3.65" length="1.44" shape="121.60,109.60 120.80,110.80"/>
    </edge>
    <edge id=":B1_24" function="internal">
        <lane id=":B1_24_0" index="0" speed="9.26" length="14.34" shape="120.89,114.56 120.85,114.85 118.60,118.60 114.85,120.85 109.60,121.60"/>
    </edge>
    <edge id=":B1_25" function="internal">
        <lane id=":B1_25_0" index="0" speed="3.65" length="3.23" shape="120.80,110.80 120.00,111.20 119.20,110.80 118.40,109.60"/>
    </edge>
    <edge id=":B1_15" function="internal">
        <lane id=":B1_15_0" index="0" speed="6.51" length="9.03" shape="109.60,115.20 112.05,114.85 113.80,113.80 114.85,112.05 115.20,109.60"/>
    </edge>
    <edge id=":B1_16" function="internal">
        <lane id=":B1_16_0" index="0" speed="13.89" length="20.80" shape="109.60,115.20 130.40,115.20"/>
        <lane id=":B1_16_1" index="1" speed="13.89" length="20.80" shape="109.60,118.40 130.40,118.40"/>
    </edge>
    <edge id=":B1_18" function="internal">
        <lane id=":B1_18_0" index="0" speed="9.26" length="5.01" shape="109.60,118.40 114.56,119.11"/>
    </edge>
    <edge id=":B1_19" function="internal">
        <lane id=":B1_19_0" index="0" speed="3.65" length="1.44" shape="109.60,118.40 110.80,119.20"/>
    </edge>
    <edge id=":B1_26" function="internal">
        <lane id=":B1_26_0" index="0" speed="9.26" length="14.34" shape="114.56,119.11 114.85,119.15 118.60,121.40 120.85,125.15 121.60,130.40"/>
    </edge>
    <edge id=":B1_27" function="internal">
        <lane id=":B1_27_0" index="0" speed="3.65" length="3.23" shape="110.80,119.20 111.20,120.00 110.80,120.80 109.60,121.60"/>
    </edge>
    <edge id=":B2_0" function="internal">
        <lane id=":B2_0_0" index="0" speed="6.51" length="9.03" shape="115.20,250.40 114.85,247.95 113.80,246.20 112.05,245.15 109.60,244.80"/>
    </edge>
    <edge id=":B2_1" function="internal">
        <lane id=":B2_1_0" index="0" speed="13.89" length="20.80" shape="115.20,250.40 115.20,229.60"/>
        <lane id=":B2_1_1" index="1" speed="13.89" length="20.80" shape="118.40,250.40 118.40,229.60"/>
    </edge>
    <edge id=":B2_3" function="internal">
        <lane id=":B2_3_0" index="0" speed="9.26" length="5.01" shape="118.40,250.40 119.11,245.44"/>
    </edge>
    <edge id=":B2_4" function="internal">
        <lane id=":B2_4_0" index="0" speed="3.65" length="1.44" shape="118.40,250.40 119.20,249.20"/>
    </edge>
    <edge id=":B2_20" function="internal">
        <lane id=":B2_20_0" index="0" speed="9.26" length="14.34" shape="119.11,245.44 119.15,245.15 121.40,241.40 125.15,239.15 130.40,238.40"/>
    </edge>
    <edge id=":B2_21" function="internal">
        <lane id=":B2_21_0" index="0" speed="3.65" length="3.23" shape="119.20,249.20 120.00,248.80 120.80,249.20 121.60,250.40"/>
    </edge>
    <edge id=":B2_5" function="internal">
        <lane id=":B2_5_0" index="0" speed="6.51" length="9.03" shape="130.40,244.80 127.95,245.15 126.20,246.20 125.15,247.95 124.80,250.40"/>
    </edge>
    <edge id=":B2_6" function="internal">
        <lane id=":B2_6_0" index="0" speed="13.89" length="20.80" shape="130.40,244.80 109.60,244.80"/>
        <lane id=":B2_6_1" index="1" speed="13.89" length="20.80" shape="130.40,241.60 109.60,241.60"/>
    </edge>
    <edge id=":B2_8" function="internal">
        <lane id=":B2_8_0" index="0" speed="9.26" length="5.01" shape="130.40,241.60 125.44,240.89"/>
    </edge>
    <edge id=":B2_9" function="internal">
        <lane id=":B2_9_0" index="0" speed="3.65" length="1.44" shape="130.40,241.60 129.20,240.80"/>
    </edge>
    <edge id=":B2_22" function="internal">
        <lane id=":B2_22_0" index="0" speed="9.26" length="14.34" shape="125.44,240.89 125.15,240.85 121.40,238.60 119.15,234.85 118.40,229.60"/>
    </edge>
    <edge id=":B2_23" function="internal">
        <lane id=":B2_23_0" index="0" speed="3.65" length="3.23" shape="129.20,240.80 128.80,240.00 129.20,239.20 130.40,238.40"/>
    </edge>
    <edge id=":B2_10" function="internal">
        <lane id=":B2_10_0" index="0" speed="6.51" length="9.03" shape="124.80,229.60 125.15,232.05 126.20,233.80 127.95,234.85 130.40,235.20"/>
    </edge>
    <edge id=":B2_11" function="internal">
        <lane id=":B2_11_0" index="0" speed="13.89" length="20.80" shape="124.80,229.60 124.80,250.40"/>
        <lane id=":B2_11_1" index="1" speed="13.89" length="20.80" shape="121.60,229.60 121.60,250.40"/>
    </edge>
    <edge id=":B2_13" function="internal">
        <lane id=":B2_13_0" index="0" speed="9.26" length="5.01" shape="121.60,229.60 120.89,234.56"/>
    </edge>
    <edge id=":B2_14" function="internal">
        <lane id=":B2_14_0" index="0" speed="3.65" length="1.44" shape="121.60,229.60 120.80,230.80"/>
    </edge>
    <edge id=":B2_24" function="internal">
        <lane id=":B2_24_0" index="0" speed="9.26" length="14.34" shape="120.89,234.56 120.85,234.85 118.60,238.60 114.85,240.85 109.60,241.60"/>
    </edge>
    <edge id=":B2_25" function="internal">
        <lane id=":B2_25_0" index="0" speed="3.65" length="3.23" shape="120.80,230.80 120.00,231.20 119.20,230.80 118.40,229.60"/>
    </edge>
    <edge id=":B2_15" function="internal">
        <lane id=":B2_15_0" index="0" speed="6.51" length="9.03" shape="109.60,235.20 112.05,234.85 113.80,233.80 114.85,232.05 115.20,229.60"/>
    </edge>
    <edge id=":B2_16" function="internal">
        <lane id=":B2_16_0" index="0" speed="13.89" length="20.80" shape="109.60,235.20 130.40,235.20"/>
        <lane id=":B2_16_1" index="1" speed="13.89" length="20.80" shape="109.60,238.40 130.40,238.40"/>
    </edge>
    <edge id=":B2_18" function="internal">
        <lane id=":B2_18_0" index="0" speed="9.26" length="5.01" shape="109.60,238.40 114.56,239.11"/>
    </edge>
    <edge id=":B2_19" function="internal">
        <lane id=":B2_19_0" index="0" speed="3.65" length="1.44" shape="109.60,238.40 110.80,239.20"/>
    </edge>
    <edge id=":B2_26" function="internal">
        <lane id=":B2_26_0" index="0" speed="9.26" length="14.34" shape="114.56,239.11 114.85,239.15 118.60,241.40 120.85,245.15 121.60,250.40"/>
    </edge>
    <edge id=":B2_27" function="internal">
        <lane id=":B2_27_0" index="0" speed="3.65" length="3.23" shape="110.80,239.20 111.20,240.00 110.80,240.80 109.60,241.60"/>
    </edge>
    <edge id=":B3_0" function="internal">
        <lane id=":B3_0_0" index="0" speed="6.51" length="9.03" shape="115.20,370.40 114.85,367.95 113.80,366.20 112.05,365.15 109.60,364.80"/>
    </edge>
    <edge id=":B3_1" function="internal">
        <lane id=":B3_1_0" index="0" speed="13.89" length="20.80" shape="115.20,370.40 115.20,349.60"/>
        <lane id=":B3_1_1" index="1" speed="13.89" length="20.80" shape="118.40,370.40 118.40,349.60"/>
    </edge>
    <edge id=":B3_3" function="internal">
        <lane id=":B3_3_0" index="0" speed="9.26" length="5.01" shape="118.40,370.40 119.11,365.44"/>
    </edge>
    <edge id=":B3_4" function="internal">
        <lane id=":B3_4_0" index="0" speed="3.65" length="1.44" shape="118.40,370.40 119.20,369.20"/>
    </edge>
    <edge id=":B3_20" function="internal">
        <lane id=":B3_20_0" index="0" speed="9.26" length="14.34" shape="119.11,365.44 119.15,365.15 121.40,361.40 125.15,359.15 130.40,358.40"/>
    </edge>
    <edge id=":B3_21" function="internal">
        <lane id=":B3_21_0" index="0" speed="3.65" length="3.23" shape="119.20,369.20 120.00,368.80 120.80,369.20 121.60,370.40"/>
    </edge>
    <edge id=":B3_5" function="internal">
        <lane id=":B3_5_0" index="0" speed="6.51" length="9.03" shape="130.40,364.80 127.95,365.15 126.20,366.20 125.15,367.95 124.80,370.40"/>
    </edge>
    <edge id=":B3_6" function="internal">
        <lane id=":B3_6_0" index="0" speed="13.89" length="20.80" shape="130.40,364.80 109.60,364.80"/>
        <lane id=":B3_6_1" index="1" speed="13.89" length="20.80" shape="130.40,361.60 109.60,361.60"/>
    </edge>
    <edge id=":B3_8" function="internal">
        <lane id=":B3_8_0" index="0" speed="9.26" length="5.01" shape="130.40,361.60 125.44,360.89"/>
    </edge>
    <edge id=":B3_9" function="internal">
        <lane id=":B3_9_0" index="0" speed="3.65" length="1.44" shape="130.40,361.60 129.20,360.80"/>
    </edge>
    <edge id=":B3_22" function="internal">
        <lane id=":B3_22_0" index="0" speed="9.26" length="14.34" shape="125.44,360.89 125.15,360.85 121.40,358.60 119.15,354.85 118.40,349.60"/>
    </edge>
    <edge id=":B3_23" function="internal">
        <lane id=":B3_23_0" index="0" speed="3.65" length="3.23" shape="129.20,360.80 128.80,360.00 129.20,359.20 130.40,358.40"/>
    </edge>
    <edge id=":B3_10" function="internal">
        <lane id=":B3_10_0" index="0" speed="6.51" length="9.03" shape="124.80,349.60 125.15,352.05 126.20,353.80 127.95,354.85 130.40,355.20"/>
    </edge>
    <edge id=":B3_11" function="internal">
        <lane id=":B3_11_0" index="0" speed="13.89" length="20.80" shape="124.80,349.60 124.80,370.40"/>
        <lane id=":B3_11_1" index="1" speed="13.89" length="20.80" shape="121.60,349.60 121.60,370.40"/>
    </edge>
    <edge id=":B3_13" function="internal">
        <lane id=":B3_13_0" index="0" speed="9.26" length="5.01" shape="121.60,349.60 120.89,354.56"/>
    </edge>
    <edge id=":B3_14" function="internal">
        <lane id=":B3_14_0" index="0" speed="3.65" length="1.44" shape="121.60,349.60 120.80,350.80"/>
    </edge>
    <edge id=":B3_24" function="internal">
        <lane id=":B3_24_0" index="0" speed="9.26" length="14.34" shape="120.89,354.56 120.85,354.85 118.60,358.60 114.85,360.85 109.60,361.60"/>
    </edge>
    <edge id=":B3_25" function="internal">
        <lane id=":B3_25_0" index="0" speed="3.65" length="3.23" shape="120.80,350.80 120.00,351.20 119.20,350.80 118.40,349.60"/>
    </edge>
    <edge id=":B3_15" function="internal">
        <lane id=":B3_15_0" index="0" speed="6.51" length="9.03" shape="109.60,355.20 112.05,354.85 113.80,353.80 114.85,352.05 115.20,349.60"/>
    </edge>
    <edge id=":B3_16" function="internal">
        <lane id=":B3_16_0" index="0" speed="13.89" length="20.80" shape="109.60,355.20 130.40,355.20"/>
        <lane id=":B3_16_1" index="1" speed="13.89" length="20.80" shape="109.60,358.40 130.40,358.40"/>
    </edge>
    <edge id=":B3_18" function="internal">
        <lane id=":B3_18_0" index="0" speed="9.26" length="5.01" shape="109.60,358.40 114.56,359.11"/>
    </edge>
    <edge id=":B3_19" function="internal">
        <lane id=":B3_19_0" index="0" speed="3.65" length="1.44" shape="109.60,358.40 110.80,359.20"/>
    </edge>
    <edge id=":B3_26" function="internal">
        <lane id=":B3_26_0" index="0" speed="9.26" length="14.34" shape="114.56,359.11 114.85,359.15 118.60,361.40 120.85,365.15 121.60,370.40"/>
    </edge>
    <edge id=":B3_27" function="internal">
        <lane id=":B3_27_0" index="0" speed="3.65" length="3.23" shape="110.80,359.20 111.20,360.00 110.80,360.80 109.60,361.60"/>
    </edge>
    <edge id=":B4_0" function="internal">
        <lane id=":B4_0_0" index="0" speed="6.51" length="9.03" shape="115.20,490.40 114.85,487.95 113.80,486.20 112.05,485.15 109.60,484.80"/>
    </edge>
    <edge id=":B4_1" function="internal">
        <lane id=":B4_1_0" index="0" speed="13.89" length="20.80" shape="115.20,490.40 115.20,469.60"/>
        <lane id=":B4_1_1" index="1" speed="13.89" length="20.80" shape="118.40,490.40 118.40,469.60"/>
    </edge>
    <edge id=":B4_3" function="internal">
        <lane id=":B4_3_0" index="0" speed="9.26" length="5.01" shape="118.40,490.40 119.11,485.44"/>
    </edge>
    <edge id=":B4_4" function="internal">
        <lane id=":B4_4_0" index="0" speed="3.65" length="1.44" shape="118.40,490.40 119.20,489.20"/>
    </edge>