<?xml version="1.0" encoding="UTF-8"?>

<!-- generated on 2025-08-13 19:21:06.130431 by randomTrips.py v1_24_0+0000-b72eb3fabc8
<configuration>
    <net-file value="sumo/scenarios/rushhour/net.net.xml"/>
    <route-file value="sumo/scenarios/rushhour/routes_morning.rou.xml"/>
    <prefix value="am"/>
    <trip-attributes value="departLane=&quot;best&quot; departSpeed=&quot;max&quot;"/>
    <seed value="41"/>
    <end value="900.0"/>
    <period value="0.5"/>
</configuration>
-->

<!-- generated on 2025-08-13 19:21:05 by Eclipse SUMO duarouter Version 1.24.0
<duarouterConfiguration xmlns:xsi="http://www.w3.org/2001/XMLSchema-instance" xsi:noNamespaceSchemaLocation="http://sumo.dlr.de/xsd/duarouterConfiguration.xsd">

    <input>
        <net-file value="sumo/scenarios/rushhour/net.net.xml"/>
        <route-files value="trips.trips.xml"/>
    </input>

    <output>
        <output-file value="sumo/scenarios/rushhour/routes_morning.rou.xml"/>
        <alternatives-output value="NUL"/>
    </output>

    <time>
        <begin value="0.0"/>
        <end value="900.0"/>
    </time>

    <report>
        <no-warnings value="true"/>
        <ignore-errors value="true"/>
        <no-step-log value="true"/>
    </report>

</duarouterConfiguration>
-->

<routes xmlns:xsi="http://www.w3.org/2001/XMLSchema-instance" xsi:noNamespaceSchemaLocation="http://sumo.dlr.de/xsd/routes_file.xsd">
    <vehicle id="am0" depart="0.00" departLane="best" departSpeed="max">
        <route edges="C2B2 B2B3 B3A3"/>
    </vehicle>
    <vehicle id="am1" depart="0.50" departLane="best" departSpeed="max">
        <route edges="B1A1 A1A2 A2B2 B2C2 C2D2 D2E2 E2F2 F2E2"/>
    </vehicle>
    <vehicle id="am2" depart="1.00" departLane="best" departSpeed="max">
        <route edges="D2D3 D3E3 E3E2 E2E1 E1E0 E0D0"/>
    </vehicle>
    <vehicle id="am3" depart="1.50" departLane="best" departSpeed="max">
        <route edges="D1E1 E1E2 E2D2 D2C2 C2C1"/>
    </vehicle>
    <vehicle id="am4" depart="2.00" departLane="best" departSpeed="max">
        <route edges="E1E2 E2D2 D2D3"/>
    </vehicle>
    <vehicle id="am5" depart="2.50" departLane="best" departSpeed="max">
        <route edges="E3D3 D3D4 D4D5 D5C5"/>
    </vehicle>
    <vehicle id="am6" depart="3.00" departLane="best" departSpeed="max">
        <route edges="E4F4 F4F3 F3E3 E3D3 D3C3 C3D3"/>
    </vehicle>
    <vehicle id="am7" depart="3.50" departLane="best" departSpeed="max">
        <route edges="B0C0 C0B0 B0B1"/>
    </vehicle>
    <vehicle id="am8" depart="4.00" departLane="best" departSpeed="max">
        <route edges="E1E0 E0D0 D0C0 C0C1 C1B1 B1B0"/>
    </vehicle>
    <vehicle id="am9" depart="4.50" departLane="best" departSpeed="max">
        <route edges="D4E4 E4E3 E3D3 D3E3"/>
    </vehicle>
    <vehicle id="am10" depart="5.00" departLane="best" departSpeed="max">
        <route edges="A2B2 B2B3 B3C3 C3D3 D3E3 E3E2"/>
    </vehicle>
    <vehicle id="am11" depart="5.50" departLane="best" departSpeed="max">
        <route edges="A1A2 A2B2 B2C2 C2D2 D2E2 E2F2 F2F1 F1F0 F0E0"/>
    </vehicle>
    <vehicle id="am12" depart="6.00" departLane="best" departSpeed="max">
        <route edges="E4F4 F4F3 F3F2 F2E2 E2D2 D2C2 C2B2 B2B3"/>
    </vehicle>
    <vehicle id="am13" depart="6.50" departLane="best" departSpeed="max">
        <route edges="E1E2"/>
    </vehicle>
    <vehicle id="am14" depart="7.00" departLane="best" departSpeed="max">
        <route edges="A5B5 B5C5 C5D5 D5D4"/>
    </vehicle>
    <vehicle id="am15" depart="7.50" departLane="best" departSpeed="max">
        <route edges="A5A4 A4B4 B4C4 C4D4 D4E4 E4F4 F4F3 F3F2 F2E2"/>
    </vehicle>
    <vehicle id="am16" depart="8.00" departLane="best" departSpeed="max">
        <route edges="E0D0 D0D1 D1D2 D2D3 D3D4 D4E4 E4F4 F4F5"/>
    </vehicle>
    <vehicle id="am17" depart="8.50" departLane="best" departSpeed="max">
        <route edges="A2A3 A3B3 B3C3 C3C2 C2C1 C1C0 C0B0"/>
    </vehicle>
    <vehicle id="am18" depart="9.00" departLane="best" departSpeed="max">
        <route edges="D3E3 E3D3 D3D2"/>
    </vehicle>
    <vehicle id="am19" depart="9.50" departLane="best" departSpeed="max">
        <route edges="B1B2 B2C2 C2D2 D2E2 E2F2 F2F1 F1E1"/>
    </vehicle>
    <vehicle id="am20" depart="10.00" departLane="best" departSpeed="max">
        <route edges="E5D5 D5C5 C5B5 B5B4"/>
    </vehicle>
    <vehicle id="am21" depart="10.50" departLane="best" departSpeed="max">
        <route edges="B0B1 B1B2 B2B3 B3B4 B4B5 B5C5 C5D5 D5D4"/>
    </vehicle>
    <vehicle id="am22" depart="11.00" departLane="best" departSpeed="max">
        <route edges="C2D2 D2D3 D3D4 D4D5 D5C5"/>
    </vehicle>
    <vehicle id="am23" depart="11.50" departLane="best" departSpeed="max">
        <route edges="C5D5 D5D4 D4D3 D3D2 D2C2 C2C3"/>
    </vehicle>
    <vehicle id="am24" depart="12.00" departLane="best" departSpeed="max">
        <route edges="A1A0 A0B0 B0A0"/>
    </vehicle>
    <vehicle id="am25" depart="12.50" departLane="best" departSpeed="max">
        <route edges="C4C5 C5D5 D5D4 D4D3 D3D2 D2D1 D1E1 E1E2"/>
    </vehicle>
    <vehicle id="am26" depart="13.00" departLane="best" departSpeed="max">
        <route edges="C3C4 C4D4 D4E4 E4E3 E3E2 E2D2"/>
    </vehicle>
    <vehicle id="am27" depart="13.50" departLane="best" departSpeed="max">
        <route edges="D1D0 D0E0 E0F0 F0F1"/>
    </vehicle>
    <vehicle id="am28" depart="14.00" departLane="best" departSpeed="max">
        <route edges="D4E4 E4E3 E3E2 E2E1 E1E0 E0D0 D0C0 C0B0"/>
    </vehicle>
    <vehicle id="am29" depart="14.50" departLane="best" departSpeed="max">
        <route edges="B0A0 A0A1 A1A2 A2B2"/>
    </vehicle>
    <vehicle id="am30" depart="15.00" departLane="best" departSpeed="max">
        <route edges="A1B1 B1C1 C1D1 D1D2 D2D3 D3D4 D4D5 D5E5 E5F5"/>
    </vehicle>
    <vehicle id="am31" depart="15.50" departLane="best" departSpeed="max">
        <route edges="F0E0 E0E1 E1E2 E2E1"/>
    </vehicle>
    <vehicle id="am32" depart="16.00" departLane="best" departSpeed="max">
        <route edges="A4B4 B4C4 C4D4 D4D5 D5C5"/>
    </vehicle>
    <vehicle id="am33" depart="16.50" departLane="best" departSpeed="max">
        <route edges="A5B5 B5C5 C5D5 D5E5 E5F5 F5F4 F4F3 F3F2 F2F1 F1E1"/>
    </vehicle>
    <vehicle id="am34" depart="17.00" departLane="best" departSpeed="max">
        <route edges="D4E4 E4E3 E3E2 E2D2"/>
    </vehicle>
    <vehicle id="am35" depart="17.50" departLane="best" departSpeed="max">
        <route edges="D3D4 D4C4 C4C3 C3C2"/>
    </vehicle>
    <vehicle id="am36" depart="18.00" departLane="best" departSpeed="max">
        <route edges="E5D5 D5E5 E5F5 F5F4 F4E4"/>
    </vehicle>
    <vehicle id="am37" depart="18.50" departLane="best" departSpeed="max">
        <route edges="B3B4 B4C4 C4C3 C3D3"/>
    </vehicle>
    <vehicle id="am38" depart="19.00" departLane="best" departSpeed="max">
        <route edges="E1F1 F1F2 F2F3 F3F4 F4E4 E4D4 D4D5 D5E5"/>
    </vehicle>
    <vehicle id="am39" depart="19.50" departLane="best" departSpeed="max">
        <route edges="C3B3 B3B4 B4C4 C4C3"/>
    </vehicle>
    <vehicle id="am40" depart="20.00" departLane="best" departSpeed="max">
        <route edges="F4F3 F3E3 E3D3 D3C3 C3B3 B3B4 B4B5"/>
    </vehicle>
    <vehicle id="am41" depart="20.50" departLane="best" departSpeed="max">
        <route edges="B2B3 B3C3 C3D3 D3E3 E3E2 E2E1 E1E0 E0D0"/>
    </vehicle>
    <vehicle id="am42" depart="21.00" departLane="best" departSpeed="max">
        <route edges="B4B5 B5C5 C5D5 D5E5 E5F5 F5F4 F4F3 F3F2 F2F1 F1F0"/>
    </vehicle>
    <vehicle id="am43" depart="21.50" departLane="best" departSpeed="max">
        <route edges="C0C1 C1C2 C2D2 D2E2 E2F2 F2F1"/>
    </vehicle>
    <vehicle id="am44" depart="22.00" departLane="best" departSpeed="max">
        <route edges="C2B2 B2C2 C2D2 D2E2 E2F2 F2F1 F1E1"/>
    </vehicle>
    <vehicle id="am45" depart="22.50" departLane="best" departSpeed="max">
        <route edges="E2E1 E1E2"/>
    </vehicle>
    <vehicle id="am46" depart="23.00" departLane="best" departSpeed="max">
        <route edges="B2B3 B3B2 B2B1 B1A1"/>
    </vehicle>
    <vehicle id="am47" depart="23.50" departLane="best" departSpeed="max">
        <route edges="A1A2 A2B2 B2B1 B1B2"/>
    </vehicle>
    <vehicle id="am48" depart="24.00" departLane="best" departSpeed="max">
        <route edges="D5C5 C5B5 B5A5 A5A4 A4A3 A3A2 A2B2"/>
    </vehicle>
    <vehicle id="am49" depart="24.50" departLane="best" departSpeed="max">
        <route edges="B3B2 B2C2 C2D2 D2D1"/>
    </vehicle>
    <vehicle id="am50" depart="25.00" departLane="best" departSpeed="max">
        <route edges="B0C0 C0C1"/>
    </vehicle>
    <vehicle id="am51" depart="25.50" departLane="best" departSpeed="max">
        <route edges="B3A3 A3A4 A4A5 A5B5 B5C5 C5D5 D5E5"/>
    </vehicle>
    <vehicle id="am52" depart="26.00" departLane="best" departSpeed="max">
        <route edges="A5A4 A4B4 B4C4 C4D4 D4E4 E4E5 E5F5 F5F4"/>
    </vehicle>
    <vehicle id="am53" depart="26.50" departLane="best" departSpeed="max">
        <route edges="D3C3 C3C2 C2D2 D2E2 E2E1 E1D1"/>
    </vehicle>
    <vehicle id="am54" depart="27.00" departLane="best" departSpeed="max">
        <route edges="D1E1 E1E2 E2E3 E3E4 E4D4 D4C4 C4C5 C5D5"/>
    </vehicle>
    <vehicle id="am55" depart="27.50" departLane="best" departSpeed="max">
        <route edges="F4F3 F3F2 F2F1 F1F0"/>
    </vehicle>
    <vehicle id="am56" depart="28.00" departLane="best" departSpeed="max">
        <route edges="E4E3 E3E2 E2E1 E1D1 D1C1 C1B1 B1A1 A1A2"/>
    </vehicle>
    <vehicle id="am57" depart="28.50" departLane="best" departSpeed="max">
        <route edges="D2E2 E2E3 E3F3 F3F2"/>
    </vehicle>
    <vehicle id="am58" depart="29.00" departLane="best" departSpeed="max">
        <route edges="D4D3 D3D2 D2D1 D1D0 D0D1"/>
    </vehicle>
    <vehicle id="am59" depart="29.50" departLane="best" departSpeed="max">
        <route edges="D4D5 D5C5 C5C4 C4C3 C3C2 C2C1 C1B1 B1B2"/>
    </vehicle>
    <vehicle id="am60" depart="30.00" departLane="best" departSpeed="max">
        <route edges="E1E2 E2E3 E3E2"/>
    </vehicle>
    <vehicle id="am61" depart="30.50" departLane="best" departSpeed="max">
        <route edges="A3A2 A2A1 A1A0 A0B0 B0C0 C0D0 D0D1"/>
    </vehicle>
    <vehicle id="am62" depart="31.00" departLane="best" departSpeed="max">
        <route edges="D3C3 C3C2 C2C1 C1C0"/>
    </vehicle>
    <vehicle id="am63" depart="31.50" departLane="best" departSpeed="max">
        <route edges="D5E5 E5F5 F5F4 F4F3 F3F2 F2F1"/>
    </vehicle>
    <vehicle id="am64" depart="32.00" departLane="best" departSpeed="max">
        <route edges="F1F2 F2F3 F3F4 F4F5 F5E5 E5D5 D5C5 C5B5 B5B4"/>
    </vehicle>
    <vehicle id="am65" depart="32.50" departLane="best" departSpeed="max">
        <route edges="B0C0 C0D0 D0D1 D1D2 D2D3 D3D4 D4D5 D5E5 E5E4"/>
    </vehicle>
    <vehicle id="am66" depart="33.00" departLane="best" departSpeed="max">
        <route edges="D3D4 D4E4 E4E5"/>
    </vehicle>
    <vehicle id="am67" depart="33.50" departLane="best" departSpeed="max">
        <route edges="F0E0 E0D0 D0C0 C0B0 B0B1 B1B2 B2B3 B3B4 B4B5"/>
    </vehicle>
    <vehicle id="am68" depart="34.00" departLane="best" departSpeed="max">
        <route edges="D2E2 E2E3 E3E4 E4E5 E5D5 D5C5 C5B5 B5B4"/>
    </vehicle>
    <vehicle id="am69" depart="34.50" departLane="best" departSpeed="max">
        <route edges="E3E4 E4E3 E3E2 E2E1 E1E0 E0D0"/>
    </vehicle>
    <vehicle id="am70" depart="35.00" departLane="best" departSpeed="max">
        <route edges="B3B2 B2C2 C2D2 D2D1 D1D0 D0C0"/>
    </vehicle>
    <vehicle id="am71" depart="35.50" departLane="best" departSpeed="max">
        <route edges="D3C3 C3B3 B3A3"/>
    </vehicle>
    <vehicle id="am72" depart="36.00" departLane="best" departSpeed="max">
        <route edges="B1B2 B2B3 B3B4 B4C4 C4D4"/>
    </vehicle>
    <vehicle id="am73" depart="36.50" departLane="best" departSpeed="max">
        <route edges="A3A2 A2B2 B2C2 C2C3 C3C4 C4C5 C5D5"/>
    </vehicle>
    <vehicle id="am74" depart="37.00" departLane="best" departSpeed="max">
        <route edges="F3E3 E3E4 E4E5"/>
    </vehicle>
    <vehicle id="am75" depart="37.50" departLane="best" departSpeed="max">
        <route edges="A2A3 A3A4 A4B4 B4C4 C4D4 D4E4 E4E5"/>
    </vehicle>
    <vehicle id="am76" depart="38.00" departLane="best" departSpeed="max">
        <route edges="E1D1 D1D0 D0E0 E0F0"/>
    </vehicle>
    <vehicle id="am77" depart="38.50" departLane="best" departSpeed="max">
        <route edges="A1A2 A2B2 B2C2 C2D2 D2E2 E2E3"/>
    </vehicle>
    <vehicle id="am78" depart="39.00" departLane="best" departSpeed="max">
        <route edges="B2A2 A2A3 A3B3 B3C3 C3D3 D3E3 E3F3"/>
    </vehicle>
    <vehicle id="am79" depart="39.50" departLane="best" departSpeed="max">
        <route edges="C0B0 B0B1 B1C1 C1C2"/>
    </vehicle>
    <vehicle id="am80" depart="40.00" departLane="best" departSpeed="max">
        <route edges="B1B0 B0C0 C0D0 D0E0 E0E1 E1F1 F1F0 F0E0"/>
    </vehicle>
    <vehicle id="am81" depart="40.50" departLane="best" departSpeed="max">
        <route edges="B2C2 C2D2 D2E2 E2F2 F2F1 F1F0 F0E0"/>
    </vehicle>
    <vehicle id="am82" depart="41.00" departLane="best" departSpeed="max">
        <route edges="D0D1 D1C1 C1C0 C0B0 B0B1"/>
    </vehicle>
    <vehicle id="am83" depart="41.50" departLane="best" departSpeed="max">
        <route edges="D4E4 E4E3 E3E2 E2E1 E1D1 D1C1"/>
    </vehicle>
    <vehicle id="am84" depart="42.00" departLane="best" departSpeed="max">
        <route edges="A1A2 A2A3 A3A4 A4B4 B4C4 C4D4 D4E4 E4E3"/>
    </vehicle>
    <vehicle id="am85" depart="42.50" departLane="best" departSpeed="max">
        <route edges="B4B3 B3B2 B2B1 B1A1 A1A0"/>
    </vehicle>
    <vehicle id="am86" depart="43.00" departLane="best" departSpeed="max">
        <route edges="E2E3 E3E2 E2E1 E1E2"/>
    </vehicle>
    <vehicle id="am87" depart="43.50" departLane="best" departSpeed="max">
        <route edges="C2C1 C1B1 B1C1"/>
    </vehicle>
    <vehicle id="am88" depart="44.00" departLane="best" departSpeed="max">
        <route edges="D1C1 C1C2 C2D2 D2E2"/>
    </vehicle>
    <vehicle id="am89" depart="44.50" departLane="best" departSpeed="max">
        <route edges="E0D0 D0D1 D1D2 D2D3 D3D4 D4D5 D5C5 C5C4"/>
    </vehicle>
    <vehicle id="am90" depart="45.00" departLane="best" departSpeed="max">
        <route edges="D2D1 D1E1 E1E0"/>
    </vehicle>
    <vehicle id="am91" depart="45.50" departLane="best" departSpeed="max">
        <route edges="B1C1 C1B1 B1B2"/>
    </vehicle>
    <vehicle id="am92" depart="46.00" departLane="best" departSpeed="max">
        <route edges="C5C4 C4D4 D4E4 E4E3 E3E2 E2E1"/>
    </vehicle>
    <vehicle id="am93" depart="46.50" departLane="best" departSpeed="max">
        <route edges="E3F3 F3F4 F4F5 F5E5 E5E4"/>
    </vehicle>
    <vehicle id="am94" depart="47.00" departLane="best" departSpeed="max">
        <route edges="C3D3 D3E3 E3E2 E2E1 E1D1"/>
    </vehicle>
    <vehicle id="am95" depart="47.50" departLane="best" departSpeed="max">
        <route edges="A4A5 A5B5 B5C5 C5C4 C4C3 C3C2 C2C1"/>
    </vehicle>
    <vehicle id="am96" depart="48.00" departLane="best" departSpeed="max">
        <route edges="A3A2 A2B2 B2C2 C2D2 D2D3 D3D4 D4E4 E4F4"/>
    </vehicle>
    <vehicle id="am97" depart="48.50" departLane="best" departSpeed="max">
        <route edges="F5F4 F4E4 E4E5 E5D5 D5D4"/>
    </vehicle>
    <vehicle id="am98" depart="49.00" departLane="best" departSpeed="max">
        <route edges="E2E1 E1D1 D1C1 C1D1"/>
    </vehicle>
    <vehicle id="am99" depart="49.50" departLane="best" departSpeed="max">
        <route edges="E3E4 E4D4 D4C4 C4B4 B4A4 A4A3 A3B3"/>
    </vehicle>
    <vehicle id="am100" depart="50.00" departLane="best" departSpeed="max">
        <route edges="C1D1 D1C1 C1C0"/>
    </vehicle>
    <vehicle id="am101" depart="50.50" departLane="best" departSpeed="max">
        <route edges="E5F5 F5F4 F4F3 F3E3 E3D3 D3C3 C3B3 B3B2 B2B1 B1B0"/>
    </vehicle>
    <vehicle id="am102" depart="51.00" departLane="best" departSpeed="max">
        <route edges="B1A1 A1A2 A2A3 A3B3"/>
    </vehicle>
    <vehicle id="am103" depart="51.50" departLane="best" departSpeed="max">
        <route edges="E5D5 D5C5 C5B5 B5C5"/>
    </vehicle>
    <vehicle id="am104" depart="52.00" departLane="best" departSpeed="max">
        <route edges="F1F2 F2E2 E2D2 D2C2 C2B2 B2B3 B3B4 B4B5 B5C5"/>
    </vehicle>
    <vehicle id="am105" depart="52.50" departLane="best" departSpeed="max">
        <route edges="E4F4 F4F3 F3F2 F2E2 E2D2 D2C2 C2B2 B2A2"/>
    </vehicle>
    <vehicle id="am106" depart="53.00" departLane="best" departSpeed="max">
        <route edges="F1F2 F2F3 F3F4 F4F3"/>
    </vehicle>
    <vehicle id="am107" depart="53.50" departLane="best" departSpeed="max">
        <route edges="F0F1 F1F0 F0E0 E0E1"/>
    </vehicle>
    <vehicle id="am108" depart="54.00" departLane="best" departSpeed="max">
        <route edges="F1F0 F0E0 E0E1 E1F1 F1F2 F2E2"/>
    </vehicle>
    <vehicle id="am109" depart="54.50" departLane="best" departSpeed="max">
        <route edges="F4E4 E4D4 D4C4 C4B4 B4B5"/>
    </vehicle>
    <vehicle id="am110" depart="55.00" departLane="best" departSpeed="max">
        <route edges="E5D5 D5D4 D4E4 E4E3 E3D3"/>
    </vehicle>
    <vehicle id="am111" depart="55.50" departLane="best" departSpeed="max">
        <route edges="C1B1 B1B0"/>
    </vehicle>
    <vehicle id="am112" depart="56.00" departLane="best" departSpeed="max">
        <route edges="F1F0 F0E0 E0D0 D0C0 C0C1 C1C2 C2C3 C3C4 C4D4"/>
    </vehicle>
    <vehicle id="am113" depart="56.50" departLane="best" departSpeed="max">
        <route edges="D1C1 C1D1 D1E1 E1F1 F1E1"/>
    </vehicle>
    <vehicle id="am114" depart="57.00" departLane="best" departSpeed="max">
        <route edges="C5C4 C4B4 B4B3 B3C3"/>
    </vehicle>
    <vehicle id="am115" depart="57.50" departLane="best" departSpeed="max">
        <route edges="E0D0 D0D1 D1C1"/>
    </vehicle>
    <vehicle id="am116" depart="58.00" departLane="best" departSpeed="max">
        <route edges="B4B3 B3B2 B2B1 B1B0 B0C0 C0D0 D0E0 E0E1"/>
    </vehicle>
    <vehicle id="am117" depart="58.50" departLane="best" departSpeed="max">
        <route edges="F1F2 F2E2 E2D2 D2C2 C2B2 B2B3 B3B4"/>
    </vehicle>
    <vehicle id="am118" depart="59.00" departLane="best" departSpeed="max">
        <route edges="E4D4 D4D3 D3E3 E3E2 E2E1"/>
    </vehicle>
    <vehicle id="am119" depart="59.50" departLane="best" departSpeed="max">
        <route edges="D0E0 E0E1 E1E2 E2D2 D2C2 C2B2 B2A2"/>
    </vehicle>
    <vehicle id="am120" depart="60.00" departLane="best" departSpeed="max">
        <route edges="D5C5 C5C4 C4B4 B4B5"/>
    </vehicle>
    <vehicle id="am121" depart="60.50" departLane="best" departSpeed="max">
        <route edges="B3C3 C3D3 D3D4 D4D5 D5E5 E5E4"/>
    </vehicle>
    <vehicle id="am122" depart="61.00" departLane="best" departSpeed="max">
        <route edges="B4B3 B3A3 A3A4 A4A3"/>
    </vehicle>
    <vehicle id="am123" depart="61.50" departLane="best" departSpeed="max">
        <route edges="E5D5 D5E5 E5F5 F5F4"/>
    </vehicle>
    <vehicle id="am124" depart="62.00" departLane="best" departSpeed="max">
        <route edges="B5B4 B4B3 B3B2 B2C2 C2D2"/>
    </vehicle>
    <vehicle id="am125" depart="62.50" departLane="best" departSpeed="max">
        <route edges="D1D2 D2E2 E2E1"/>
    </vehicle>
    <vehicle id="am126" depart="63.00" departLane="best" departSpeed="max">
        <route edges="A0B0 B0C0 C0D0 D0D1 D1D2 D2D3 D3D4 D4D5"/>
    </vehicle>
    <vehicle id="am127" depart="63.50" departLane="best" departSpeed="max">
        <route edges="B3B2 B2C2 C2D2 D2E2 E2F2 F2F3"/>
    </vehicle>
    <vehicle id="am128" depart="64.00" departLane="best" departSpeed="max">
        <route edges="C3B3 B3C3 C3D3 D3E3 E3F3 F3F2"/>
    </vehicle>
    <vehicle id="am129" depart="64.50" departLane="best" departSpeed="max">
        <route edges="C4C3 C3D3 D3D4 D4E4"/>
    </vehicle>
    <vehicle id="am130" depart="65.00" departLane="best" departSpeed="max">
        <route edges="A1B1 B1B2 B2B1"/>
    </vehicle>
    <vehicle id="am131" depart="65.50" departLane="best" departSpeed="max">
        <route edges="B5A5 A5A4 A4A3 A3A2 A2A1 A1B1 B1C1 C1D1"/>
    </vehicle>
    <vehicle id="am132" depart="66.00" departLane="best" departSpeed="max">
        <route edges="B1B0 B0B1 B1B2 B2B3 B3C3 C3C2"/>
    </vehicle>
    <vehicle id="am133" depart="66.50" departLane="best" departSpeed="max">
        <route edges="A3B3 B3C3 C3D3 D3D2 D2C2"/>
    </vehicle>
    <vehicle id="am134" depart="67.00" departLane="best" departSpeed="max">
        <route edges="F4E4 E4E5 E5E4"/>
    </vehicle>
    <vehicle id="am135" depart="67.50" departLane="best" departSpeed="max">
        <route edges="D3E3 E3F3 F3F4 F4F5"/>
    </vehicle>
    <vehicle id="am136" depart="68.00" departLane="best" departSpeed="max">
        <route edges="E1E2 E2E3 E3E4 E4D4 D4D3"/>
    </vehicle>
    <vehicle id="am137" depart="68.50" departLane="best" departSpeed="max">
        <route edges="C4C3 C3B3 B3A3 A3A4"/>
    </vehicle>
    <vehicle id="am138" depart="69.00" departLane="best" departSpeed="max">
        <route edges="F1F0"/>
    </vehicle>
    <vehicle id="am139" depart="69.50" departLane="best" departSpeed="max">
        <route edges="E3F3 F3F2 F2F1 F1F0 F0E0 E0D0"/>
    </vehicle>
    <vehicle id="am140" depart="70.00" departLane="best" departSpeed="max">
        <route edges="E4D4 D4E4 E4F4 F4E4"/>
    </vehicle>
    <vehicle id="am141" depart="70.50" departLane="best" departSpeed="max">
        <route edges="F4F3 F3E3 E3E2 E2F2"/>
    </vehicle>
    <vehicle id="am142" depart="71.00" departLane="best" departSpeed="max">
        <route edges="A0B0 B0B1 B1B2 B2B3 B3C3 C3D3 D3E3 E3F3 F3F2"/>
    </vehicle>
    <vehicle id="am143" depart="71.50" departLane="best" departSpeed="max">
        <route edges="D2D1 D1C1 C1C2 C2C3 C3C4 C4C3"/>
    </vehicle>
    <vehicle id="am144" depart="72.00" departLane="best" departSpeed="max">
        <route edges="C3C4 C4B4 B4B3"/>
    </vehicle>
    <vehicle id="am145" depart="72.50" departLane="best" departSpeed="max">
        <route edges="A1B1 B1B2 B2B3 B3C3 C3D3 D3E3"/>
    </vehicle>
    <vehicle id="am146" depart="73.00" departLane="best" departSpeed="max">
        <route edges="D3E3 E3D3 D3C3 C3B3 B3A3 A3B3"/>
    </vehicle>
    <vehicle id="am147" depart="73.50" departLane="best" departSpeed="max">
        <route edges="F2F1 F1F2"/>
    </vehicle>
    <vehicle id="am148" depart="74.00" departLane="best" departSpeed="max">
        <route edges="E5F5 F5F4 F4F3 F3F2 F2F1 F1E1 E1D1 D1D0"/>
    </vehicle>
    <vehicle id="am149" depart="74.50" departLane="best" departSpeed="max">
        <route edges="C2C1 C1C2 C2C3 C3C4 C4D4"/>
    </vehicle>
    <vehicle id="am150" depart="75.00" departLane="best" departSpeed="max">
        <route edges="C1D1 D1E1 E1F1 F1F2 F2F3 F3F4"/>
    </vehicle>
    <vehicle id="am151" depart="75.50" departLane="best" departSpeed="max">
        <route edges="F2F1 F1F0"/>
    </vehicle>
    <vehicle id="am152" depart="76.00" departLane="best" departSpeed="max">
        <route edges="D0E0 E0D0 D0D1"/>
    </vehicle>
    <vehicle id="am153" depart="76.50" departLane="best" departSpeed="max">
        <route edges="E0D0 D0C0 C0B0 B0B1 B1B2 B2B3 B3B4 B4C4"/>
    </vehicle>
    <vehicle id="am154" depart="77.00" departLane="best" departSpeed="max">
        <route edges="B1C1 C1D1 D1E1 E1F1 F1F2 F2F3 F3F4 F4F5 F5E5"/>
    </vehicle>
    <vehicle id="am155" depart="77.50" departLane="best" departSpeed="max">
        <route edges="B4B3"/>
    </vehicle>
    <vehicle id="am156" depart="78.00" departLane="best" departSpeed="max">
        <route edges="C5D5 D5D4 D4C4 C4B4 B4A4 A4A3 A3B3"/>
    </vehicle>
    <vehicle id="am157" depart="78.50" departLane="best" departSpeed="max">
        <route edges="D0E0 E0E1 E1D1 D1C1 C1B1 B1A1"/>
    </vehicle>
    <vehicle id="am158" depart="79.00" departLane="best" departSpeed="max">
        <route edges="E4E5 E5D5 D5C5 C5B5 B5B4 B4B3 B3A3 A3A4"/>
    </vehicle>
    <vehicle id="am159" depart="79.50" departLane="best" departSpeed="max">
        <route edges="E3F3 F3F4 F4E4 E4D4 D4C4 C4B4 B4B3"/>
    </vehicle>
    <vehicle id="am160" depart="80.00" departLane="best" departSpeed="max">
        <route edges="E3E2 E2E3 E3F3"/>
    </vehicle>
    <vehicle id="am161" depart="80.50" departLane="best" departSpeed="max">
        <route edges="F3F4 F4E4 E4D4 D4C4 C4B4 B4B3 B3B2 B2B1 B1B0"/>
    </vehicle>
    <vehicle id="am162" depart="81.00" departLane="best" departSpeed="max">
        <route edges="F5E5 E5E4 E4E3 E3E2 E2E1 E1E0 E0D0 D0C0 C0B0 B0B1"/>
    </vehicle>
    <vehicle id="am163" depart="81.50" departLane="best" departSpeed="max">
        <route edges="C1C0 C0B0 B0A0 A0A1"/>
    </vehicle>
    <vehicle id="am164" depart="82.00" departLane="best" departSpeed="max">
        <route edges="C5D5 D5D4 D4D3 D3C3 C3B3 B3A3 A3A4"/>
    </vehicle>
    <vehicle id="am165" depart="82.50" departLane="best" departSpeed="max">
        <route edges="D1E1 E1F1 F1F2 F2F3"/>
    </vehicle>
    <vehicle id="am166" depart="83.00" departLane="best" departSpeed="max">
        <route edges="E3D3 D3D4 D4D5"/>
    </vehicle>
    <vehicle id="am167" depart="83.50" departLane="best" departSpeed="max">
        <route edges="A3B3 B3C3 C3D3 D3E3 E3F3 F3F4 F4F5 F5E5"/>
    </vehicle>
    <vehicle id="am168" depart="84.00" departLane="best" departSpeed="max">
        <route edges="C1C2 C2C3 C3D3 D3E3 E3F3 F3F2"/>
    </vehicle>
    <vehicle id="am169" depart="84.50" departLane="best" departSpeed="max">
        <route edges="B0B1 B1B2 B2B3 B3B4 B4B5 B5A5"/>
    </vehicle>
    <vehicle id="am170" depart="85.00" departLane="best" departSpeed="max">
        <route edges="F3F2 F2E2 E2D2"/>
    </vehicle>
    <vehicle id="am171" depart="85.50" departLane="best" departSpeed="max">
        <route edges="B1C1 C1C2 C2C3 C3C4 C4C3"/>
    </vehicle>
    <vehicle id="am172" depart="86.00" departLane="best" departSpeed="max">
        <route edges="D1D2 D2C2 C2B2 B2B3 B3C3"/>
    </vehicle>
    <vehicle id="am173" depart="86.50" departLane="best" departSpeed="max">
        <route edges="B2C2 C2B2 B2A2 A2A3 A3B3"/>
    </vehicle>
    <vehicle id="am174" depart="87.00" departLane="best" departSpeed="max">
        <route edges="D0D1 D1D2 D2D3 D3C3 C3B3"/>
    </vehicle>
    <vehicle id="am175" depart="87.50" departLane="best" departSpeed="max">
        <route edges="C1B1 B1B2 B2B3 B3B4 B4C4 C4C5 C5B5"/>
    </vehicle>
    <vehicle id="am176" depart="88.00" departLane="best" departSpeed="max">
        <route edges="C1B1 B1B2 B2C2 C2C1"/>
    </vehicle>
    <vehicle id="am177" depart="88.50" departLane="best" departSpeed="max">
        <route edges="E2E3 E3D3 D3C3 C3C2 C2C1 C1C0 C0B0 B0B1"/>
    </vehicle>
    <vehicle id="am178" depart="89.00" departLane="best" departSpeed="max">
        <route edges="A4A3 A3B3 B3C3 C3C4 C4B4"/>
    </vehicle>
    <vehicle id="am179" depart="89.50" departLane="best" departSpeed="max">
        <route edges="B4C4 C4C5 C5B5"/>
    </vehicle>
    <vehicle id="am180" depart="90.00" departLane="best" departSpeed="max">
        <route edges="E5F5 F5F4 F4F3 F3F2"/>
    </vehicle>
    <vehicle id="am181" depart="90.50" departLane="best" departSpeed="max">
        <route edges="E4E3 E3E2 E2F2 F2F1"/>
    </vehicle>
    <vehicle id="am182" depart="91.00" departLane="best" departSpeed="max">
        <route edges="B3A3 A3A2 A2B2 B2C2 C2C1 C1B1"/>
    </vehicle>
    <vehicle id="am183" depart="91.50" departLane="best" departSpeed="max">
        <route edges="A4B4 B4C4"/>
    </vehicle>
    <vehicle id="am184" depart="92.00" departLane="best" departSpeed="max">
        <route edges="B4A4 A4A3 A3B3 B3B2"/>
    </vehicle>
    <vehicle id="am185" depart="92.50" departLane="best" departSpeed="max">
        <route edges="C0D0 D0E0 E0F0 F0F1 F1F2 F2F3 F3E3"/>
    </vehicle>
    <vehicle id="am186" depart="93.00" departLane="best" departSpeed="max">
        <route edges="D0D1 D1E1 E1F1 F1F0"/>
    </vehicle>
    <vehicle id="am187" depart="93.50" departLane="best" departSpeed="max">
        <route edges="D1C1 C1C2 C2D2 D2E2 E2D2"/>
    </vehicle>
    <vehicle id="am188" depart="94.00" departLane="best" departSpeed="max">
        <route edges="D5D4 D4D3 D3C3"/>
    </vehicle>
    <vehicle id="am189" depart="94.50" departLane="best" departSpeed="max">
        <route edges="F2F1 F1E1 E1D1 D1D2 D2D3 D3C3"/>
    </vehicle>
    <vehicle id="am190" depart="95.00" departLane="best" departSpeed="max">
        <route edges="D0C0 C0B0 B0B1 B1B2 B2B3 B3A3"/>
    </vehicle>
    <vehicle id="am191" depart="95.50" departLane="best" departSpeed="max">
        <route edges="A4A3 A3B3 B3C3 C3C4"/>
    </vehicle>
    <vehicle id="am192" depart="96.00" departLane="best" departSpeed="max">
        <route edges="C2D2 D2D3 D3D4 D4C4 C4B4 B4A4 A4A5 A5B5"/>
    </vehicle>
    <vehicle id="am193" depart="96.50" departLane="best" departSpeed="max">
        <route edges="F3F4 F4E4 E4D4 D4C4 C4B4 B4A4 A4A3 A3A2 A2A1 A1A0"/>
    </vehicle>
    <vehicle id="am194" depart="97.00" departLane="best" departSpeed="max">
        <route edges="C3D3 D3C3 C3B3 B3B4"/>
    </vehicle>
    <vehicle id="am195" depart="97.50" departLane="best" departSpeed="max">
        <route edges="C2D2 D2D3 D3D4 D4E4 E4F4"/>
    </vehicle>
    <vehicle id="am196" depart="98.00" departLane="best" departSpeed="max">
        <route edges="F4E4 E4E3 E3E2 E2D2 D2C2 C2C3"/>
    </vehicle>
    <vehicle id="am197" depart="98.50" departLane="best" departSpeed="max">
        <route edges="E1D1 D1E1 E1F1 F1F0"/>
    </vehicle>
    <vehicle id="am198" depart="99.00" departLane="best" departSpeed="max">
        <route edges="B4C4 C4C3 C3C2 C2C3"/>
    </vehicle>
    <vehicle id="am199" depart="99.50" departLane="best" departSpeed="max">
        <route edges="C3D3 D3D4 D4E4 E4F4"/>
    </vehicle>