<?xml version="1.0" encoding="UTF-8"?>

<!-- generated on 2025-08-13 19:21:07.327327 by randomTrips.py v1_24_0+0000-b72eb3fabc8
<configuration>
    <net-file value="sumo/scenarios/rushhour/net.net.xml"/>
    <route-file value="sumo/scenarios/rushhour/routes_offpeak.rou.xml"/>
    <prefix value="off"/>
    <trip-attributes value="departLane=&quot;best&quot; departSpeed=&quot;max&quot;"/>
    <begin value="900.0"/>
    <end value="1800.0"/>
    <period value="2.0"/>
</configuration>
-->

<!-- generated on 2025-08-13 19:21:07 by Eclipse SUMO duarouter Version 1.24.0
<duarouterConfiguration xmlns:xsi="http://www.w3.org/2001/XMLSchema-instance" xsi:noNamespaceSchemaLocation="http://sumo.dlr.de/xsd/duarouterConfiguration.xsd">

    <input>
        <net-file value="sumo/scenarios/rushhour/net.net.xml"/>
        <route-files value="trips.trips.xml"/>
    </input>

    <output>
        <output-file value="sumo/scenarios/rushhour/routes_offpeak.rou.xml"/>
        <alternatives-output value="NUL"/>
    </output>

    <time>
        <begin value="900.0"/>
        <end value="1800.0"/>
    </time>

    <report>
        <no-warnings value="true"/>
        <ignore-errors value="true"/>
        <no-step-log value="true"/>
    </report>

</duarouterConfiguration>
-->

<routes xmlns:xsi="http://www.w3.org/2001/XMLSchema-instance" xsi:noNamespaceSchemaLocation="http://sumo.dlr.de/xsd/routes_file.xsd">
    <vehicle id="off0" depart="900.00" departLane="best" departSpeed="max">
        <route edges="D4D3 D3D2 D2D1 D1C1 C1B1 B1A1 A1A2"/>
    </vehicle>
    <vehicle id="off1" depart="902.00" departLane="best" departSpeed="max">
        <route edges="B4B5 B5B4 B4B3 B3B2 B2C2"/>
    </vehicle>
    <vehicle id="off2" depart="904.00" departLane="best" departSpeed="max">
        <route edges="E1F1 F1F2 F2F3 F3F4 F4E4 E4D4 D4D5 D5E5"/>
    </vehicle>
    <vehicle id="off3" depart="906.00" departLane="best" departSpeed="max">
        <route edges="F1F0 F0E0 E0D0 D0C0 C0B0 B0A0 A0A1 A1A2 A2A3 A3B3"/>
    </vehicle>
    <vehicle id="off4" depart="908.00" departLane="best" departSpeed="max">
        <route edges="C3C2 C2C1 C1B1 B1A1 A1A2"/>
    </vehicle>
    <vehicle id="off5" depart="910.00" departLane="best" departSpeed="max">
        <route edges="B2C2 C2D2 D2D1 D1D0 D0C0"/>
    </vehicle>
    <vehicle id="off6" depart="912.00" departLane="best" departSpeed="max">
        <route edges="A1A2 A2B2 B2A2"/>
    </vehicle>
    <vehicle id="off7" depart="914.00" departLane="best" departSpeed="max">
        <route edges="D4D5 D5D4 D4D3 D3D2 D2D1 D1D2"/>
    </vehicle>
    <vehicle id="off8" depart="916.00" departLane="best" departSpeed="max">
        <route edges="B2C2 C2D2 D2E2"/>
    </vehicle>
    <vehicle id="off9" depart="918.00" departLane="best" departSpeed="max">
        <route edges="E4D4 D4C4 C4B4 B4B3 B3B2 B2B1 B1B0 B0A0 A0A1"/>
    </vehicle>
    <vehicle id="off10" depart="920.00" departLane="best" departSpeed="max">
        <route edges="E3F3 F3F2 F2F1 F1F0 F0E0 E0E1"/>
    </vehicle>
    <vehicle id="off11" depart="922.00" departLane="best" departSpeed="max">
        <route edges="C0D0 D0C0 C0B0 B0C0"/>
    </vehicle>
    <vehicle id="off12" depart="924.00" departLane="best" departSpeed="max">
        <route edges="F3F4 F4E4 E4D4 D4C4 C4C3 C3C2 C2C1 C1C0 C0D0"/>
    </vehicle>
    <vehicle id="off13" depart="926.00" departLane="best" departSpeed="max">
        <route edges="A4A3"/>
    </vehicle>
    <vehicle id="off14" depart="928.00" departLane="best" departSpeed="max">
        <route edges="E5D5 D5D4 D4D3 D3D2"/>
    </vehicle>
    <vehicle id="off15" depart="930.00" departLane="best" departSpeed="max">
        <route edges="E3F3 F3F2 F2F1 F1E1 E1E2"/>
    </vehicle>
    <vehicle id="off16" depart="932.00" departLane="best" departSpeed="max">
        <route edges="D1D0 D0E0 E0E1 E1E2 E2E3 E3E4 E4F4 F4F3"/>
    </vehicle>
    <vehicle id="off17" depart="934.00" departLane="best" departSpeed="max">
        <route edges="C2B2 B2B1 B1C1 C1D1 D1E1"/>
    </vehicle>
    <vehicle id="off18" depart="936.00" departLane="best" departSpeed="max">
        <route edges="E4E5 E5D5 D5D4 D4D3 D3E3"/>
    </vehicle>
    <vehicle id="off19" depart="938.00" departLane="best" departSpeed="max">
        <route edges="E5F5 F5F4 F4F3 F3F2 F2E2 E2D2 D2D3"/>
    </vehicle>
    <vehicle id="off20" depart="940.00" departLane="best" departSpeed="max">
        <route edges="E0F0 F0F1 F1F2 F2E2 E2D2 D2C2 C2B2 B2A2 A2A1"/>
    </vehicle>
    <vehicle id="off21" depart="942.00" departLane="best" departSpeed="max">
        <route edges="B3A3 A3A4 A4B4 B4C4"/>
    </vehicle>
    <vehicle id="off22" depart="944.00" departLane="best" departSpeed="max">
        <route edges="A3A4 A4B4 B4B3 B3A3"/>
    </vehicle>
    <vehicle id="off23" depart="946.00" departLane="best" departSpeed="max">
        <route edges="A4A5 A5B5 B5B4 B4B5"/>
    </vehicle>
    <vehicle id="off24" depart="948.00" departLane="best" departSpeed="max">
        <route edges="D4D3 D3D2 D2D1 D1C1 C1C2"/>
    </vehicle>
    <vehicle id="off25" depart="950.00" departLane="best" departSpeed="max">
        <route edges="C1D1 D1D2 D2C2 C2B2 B2B3"/>
    </vehicle>
    <vehicle id="off26" depart="952.00" departLane="best" departSpeed="max">
        <route edges="B4B3 B3C3 C3D3 D3E3 E3F3 F3E3"/>
    </vehicle>
    <vehicle id="off27" depart="954.00" departLane="best" departSpeed="max">
        <route edges="D4D5 D5D4 D4D3 D3D4"/>
    </vehicle>
    <vehicle id="off28" depart="956.00" departLane="best" departSpeed="max">
        <route edges="B1B0 B0C0 C0D0 D0E0 E0E1 E1E2"/>
    </vehicle>
    <vehicle id="off29" depart="958.00" departLane="best" departSpeed="max">
        <route edges="B1A1 A1A2 A2B2 B2C2 C2B2"/>
    </vehicle>
    <vehicle id="off30" depart="960.00" departLane="best" departSpeed="max">
        <route edges="F5E5 E5D5 D5D4 D4D3"/>
    </vehicle>
    <vehicle id="off31" depart="962.00" departLane="best" departSpeed="max">
        <route edges="D1E1 E1E0 E0D0"/>
    </vehicle>
    <vehicle id="off32" depart="964.00" departLane="best" departSpeed="max">
        <route edges="E5D5 D5D4 D4E4 E4E3 E3D3"/>
    </vehicle>
    <vehicle id="off33" depart="966.00" departLane="best" departSpeed="max">
        <route edges="B3A3 A3A2 A2A1 A1A2"/>
    </vehicle>
    <vehicle id="off34" depart="968.00" departLane="best" departSpeed="max">
        <route edges="B5C5 C5C4 C4B4 B4B3"/>
    </vehicle>
    <vehicle id="off35" depart="970.00" departLane="best" departSpeed="max">
        <route edges="B2B3 B3C3 C3D3 D3E3 E3F3 F3F2"/>
    </vehicle>
    <vehicle id="off36" depart="972.00" departLane="best" departSpeed="max">
        <route edges="F0F1 F1E1 E1D1 D1C1 C1B1 B1B2 B2B3 B3B4 B4B5 B5C5"/>
    </vehicle>
    <vehicle id="off37" depart="974.00" departLane="best" departSpeed="max">
        <route edges="D4E4 E4E3 E3E2 E2D2 D2C2 C2C3"/>
    </vehicle>
    <vehicle id="off38" depart="976.00" departLane="best" departSpeed="max">
        <route edges="F2E2 E2D2 D2C2 C2C3 C3C4 C4C5"/>
    </vehicle>
    <vehicle id="off39" depart="978.00" departLane="best" departSpeed="max">
        <route edges="B4A4 A4A3 A3B3 B3B4"/>
    </vehicle>
    <vehicle id="off40" depart="980.00" departLane="best" departSpeed="max">
        <route edges="D2C2 C2B2 B2B3 B3B4 B4A4"/>
    </vehicle>
    <vehicle id="off41" depart="982.00" departLane="best" departSpeed="max">
        <route edges="D2E2 E2F2 F2F1 F1F0"/>
    </vehicle>
    <vehicle id="off42" depart="984.00" departLane="best" departSpeed="max">
        <route edges="C2C3 C3B3 B3B2 B2C2"/>
    </vehicle>
    <vehicle id="off43" depart="986.00" departLane="best" departSpeed="max">
        <route edges="F5F4 F4F3 F3F2 F2F1 F1F0 F0E0 E0D0 D0D1"/>
    </vehicle>
    <vehicle id="off44" depart="988.00" departLane="best" departSpeed="max">
        <route edges="A3B3 B3B2 B2A2 A2A1"/>
    </vehicle>
    <vehicle id="off45" depart="990.00" departLane="best" departSpeed="max">
        <route edges="A4B4 B4C4 C4D4 D4C4"/>
    </vehicle>
    <vehicle id="off46" depart="992.00" departLane="best" departSpeed="max">
        <route edges="E3E4 E4D4 D4C4 C4C3 C3C2"/>
    </vehicle>
    <vehicle id="off47" depart="994.00" departLane="best" departSpeed="max">
        <route edges="A2B2 B2C2 C2B2"/>
    </vehicle>
    <vehicle id="off48" depart="996.00" departLane="best" departSpeed="max">
        <route edges="F5F4 F4F3 F3F2 F2F1 F1E1 E1D1 D1C1"/>
    </vehicle>
    <vehicle id="off49" depart="998.00" departLane="best" departSpeed="max">
        <route edges="F4F3 F3E3 E3E4 E4E5 E5F5"/>
    </vehicle>
    <vehicle id="off50" depart="1000.00" departLane="best" departSpeed="max">
        <route edges="A0B0 B0B1 B1C1 C1D1 D1E1 E1E0"/>
    </vehicle>
    <vehicle id="off51" depart="1002.00" departLane="best" departSpeed="max">
        <route edges="D5E5 E5E4 E4E3 E3E2 E2E1 E1D1 D1D0"/>
    </vehicle>
    <vehicle id="off52" depart="1004.00" departLane="best" departSpeed="max">
        <route edges="B4B3 B3C3 C3C4 C4D4 D4D3"/>
    </vehicle>
    <vehicle id="off53" depart="1006.00" departLane="best" departSpeed="max">
        <route edges="A4B4 B4C4 C4C3 C3D3"/>
    </vehicle>
    <vehicle id="off54" depart="1008.00" departLane="best" departSpeed="max">
        <route edges="C4C3 C3D3 D3E3 E3F3 F3F4"/>
    </vehicle>
    <vehicle id="off55" depart="1010.00" departLane="best" departSpeed="max">
        <route edges="F0F1 F1F2 F2F3 F3F4 F4E4 E4D4 D4C4 C4B4 B4A4"/>
    </vehicle>
    <vehicle id="off56" depart="1012.00" departLane="best" departSpeed="max">
        <route edges="D0C0 C0B0 B0B1 B1B2"/>
    </vehicle>
    <vehicle id="off57" depart="1014.00" departLane="best" departSpeed="max">
        <route edges="F2E2 E2E1 E1F1 F1F0 F0E0"/>
    </vehicle>
    <vehicle id="off58" depart="1016.00" departLane="best" departSpeed="max">
        <route edges="B5A5 A5A4 A4B4 B4C4 C4D4 D4D3"/>
    </vehicle>
    <vehicle id="off59" depart="1018.00" departLane="best" departSpeed="max">
        <route edges="D3D4 D4C4 C4B4 B4B3 B3B2 B2B1 B1B0 B0C0"/>
    </vehicle>
    <vehicle id="off60" depart="1020.00" departLane="best" departSpeed="max">
        <route edges="E2E3 E3D3 D3D2 D2D1 D1D0"/>
    </vehicle>
    <vehicle id="off61" depart="1022.00" departLane="best" departSpeed="max">
        <route edges="E3D3 D3D2 D2D1 D1C1"/>
    </vehicle>
    <vehicle id="off62" depart="1024.00" departLane="best" departSpeed="max">
        <route edges="A0A1 A1B1 B1C1 C1C0 C0B0"/>
    </vehicle>
    <vehicle id="off63" depart="1026.00" departLane="best" departSpeed="max">
        <route edges="A1A0 A0B0 B0C0 C0D0 D0E0 E0F0 F0F1 F1F2 F2F3"/>
    </vehicle>
    <vehicle id="off64" depart="1028.00" departLane="best" departSpeed="max">
        <route edges="F0F1 F1E1 E1E2 E2E3 E3E4 E4E5"/>
    </vehicle>
    <vehicle id="off65" depart="1030.00" departLane="best" departSpeed="max">
        <route edges="B5B4 B4B3 B3B2 B2A2 A2A3"/>
    </vehicle>
    <vehicle id="off66" depart="1032.00" departLane="best" departSpeed="max">
        <route edges="F0F1 F1F2 F2F3 F3F2"/>
    </vehicle>
    <vehicle id="off67" depart="1034.00" departLane="best" departSpeed="max">
        <route edges="A3B3 B3B4 B4B5 B5C5 C5C4"/>
    </vehicle>
    <vehicle id="off68" depart="1036.00" departLane="best" departSpeed="max">
        <route edges="A3A2 A2B2 B2C2 C2D2 D2E2 E2E3"/>
    </vehicle>
    <vehicle id="off69" depart="1038.00" departLane="best" departSpeed="max">
        <route edges="E2E3 E3E4 E4D4 D4C4 C4B4 B4A4 A4A5 A5B5"/>
    </vehicle>
    <vehicle id="off70" depart="1040.00" departLane="best" departSpeed="max">
        <route edges="C5B5 B5B4 B4B3 B3B2 B2B1 B1C1 C1D1 D1D2"/>
    </vehicle>
    <vehicle id="off71" depart="1042.00" departLane="best" departSpeed="max">
        <route edges="B4A4 A4A3 A3A2 A2A1 A1B1 B1C1 C1D1 D1E1 E1F1 F1F0 F0E0"/>
    </vehicle>
    <vehicle id="off72" depart="1044.00" departLane="best" departSpeed="max">
        <route edges="C3C2 C2B2 B2B3"/>
    </vehicle>
    <vehicle id="off73" depart="1046.00" departLane="best" departSpeed="max">
        <route edges="D1D0 D0E0 E0E1 E1E2"/>
    </vehicle>
    <vehicle id="off74" depart="1048.00" departLane="best" departSpeed="max">
        <route edges="B2B1 B1B2 B2B3 B3B4 B4B5 B5C5"/>
    </vehicle>
    <vehicle id="off75" depart="1050.00" departLane="best" departSpeed="max">
        <route edges="F5F4 F4E4 E4D4 D4D5"/>
    </vehicle>
    <vehicle id="off76" depart="1052.00" departLane="best" departSpeed="max">
        <route edges="C3D3 D3D2 D2D1 D1D0 D0E0"/>
    </vehicle>
    <vehicle id="off77" depart="1054.00" departLane="best" departSpeed="max">
        <route edges="A5A4 A4A3 A3A2 A2B2 B2C2"/>
    </vehicle>
    <vehicle id="off78" depart="1056.00" departLane="best" departSpeed="max">
        <route edges="C0D0 D0D1 D1D2 D2E2"/>
    </vehicle>
    <vehicle id="off79" depart="1058.00" departLane="best" departSpeed="max">
        <route edges="B3A3 A3A2 A2B2 B2C2"/>
    </vehicle>
    <vehicle id="off80" depart="1060.00" departLane="best" departSpeed="max">
        <route edges="A3A2 A2B2 B2C2 C2D2 D2D3 D3D4 D4C4"/>
    </vehicle>
    <vehicle id="off81" depart="1062.00" departLane="best" departSpeed="max">
        <route edges="B3A3 A3A2 A2A1 A1B1 B1C1 C1D1 D1E1 E1F1 F1F2"/>
    </vehicle>
    <vehicle id="off82" depart="1064.00" departLane="best" departSpeed="max">
        <route edges="E5F5 F5F4 F4E4 E4D4 D4C4 C4B4 B4A4 A4A3 A3A2"/>
    </vehicle>
    <vehicle id="off83" depart="1066.00" departLane="best" departSpeed="max">
        <route edges="B3B2 B2C2 C2C3 C3C4 C4C5 C5D5 D5D4"/>
    </vehicle>
    <vehicle id="off84" depart="1068.00" departLane="best" departSpeed="max">
        <route edges="B2B3 B3B4 B4A4 A4A5 A5B5"/>
    </vehicle>
    <vehicle id="off85" depart="1070.00" departLane="best" departSpeed="max">
        <route edges="F3E3 E3D3 D3D2 D2D1"/>
    </vehicle>
    <vehicle id="off86" depart="1072.00" departLane="best" departSpeed="max">
        <route edges="C4D4 D4E4 E4E3 E3E2"/>
    </vehicle>
    <vehicle id="off87" depart="1074.00" departLane="best" departSpeed="max">
        <route edges="E3F3 F3F2 F2E2 E2D2 D2C2 C2B2 B2B1 B1C1"/>
    </vehicle>
    <vehicle id="off88" depart="1076.00" departLane="best" departSpeed="max">
        <route edges="A4A3 A3B3 B3C3 C3C4"/>
    </vehicle>
    <vehicle id="off89" depart="1078.00" departLane="best" departSpeed="max">
        <route edges="C3C2 C2C3 C3C4 C4D4"/>
    </vehicle>
    <vehicle id="off90" depart="1080.00" departLane="best" departSpeed="max">
        <route edges="E1E2 E2E3 E3E4 E4E5 E5D5 D5D4"/>
    </vehicle>
    <vehicle id="off91" depart="1082.00" departLane="best" departSpeed="max">
        <route edges="F5E5 E5D5 D5C5 C5B5 B5A5 A5A4 A4A3"/>
    </vehicle>
    <vehicle id="off92" depart="1084.00" departLane="best" departSpeed="max">
        <route edges="C2D2 D2D1 D1C1 C1C0 C0D0"/>
    </vehicle>
    <vehicle id="off93" depart="1086.00" departLane="best" departSpeed="max">
        <route edges="E5F5 F5F4 F4F3 F3E3 E3D3 D3C3 C3B3 B3B4"/>
    </vehicle>
    <vehicle id="off94" depart="1088.00" departLane="best" departSpeed="max">
        <route edges="B1C1 C1C2 C2C3 C3C4 C4B4"/>
    </vehicle>
    <vehicle id="off95" depart="1090.00" departLane="best" departSpeed="max">
        <route edges="C3C2 C2B2 B2B3 B3B4 B4B5"/>
    </vehicle>
    <vehicle id="off96" depart="1092.00" departLane="best" departSpeed="max">
        <route edges="B3B4 B4C4 C4D4 D4E4 E4F4 F4F3 F3F2 F2F1"/>
    </vehicle>
    <vehicle id="off97" depart="1094.00" departLane="best" departSpeed="max">
        <route edges="C4B4 B4B5 B5C5 C5D5 D5E5 E5F5"/>
    </vehicle>
    <vehicle id="off98" depart="1096.00" departLane="best" departSpeed="max">
        <route edges="D1E1 E1E2 E2D2 D2C2 C2B2 B2A2 A2A3"/>
    </vehicle>
    <vehicle id="off99" depart="1098.00" departLane="best" departSpeed="max">
        <route edges="F5F4 F4E4 E4F4"/>
    </vehicle>
    <vehicle id="off100" depart="1100.00" departLane="best" departSpeed="max">
        <route edges="F4F3 F3F2 F2F3"/>
    </vehicle>
    <vehicle id="off101" depart="1102.00" departLane="best" departSpeed="max">
        <route edges="E5D5 D5D4 D4D3 D3D2 D2D1 D1C1 C1B1 B1A1"/>
    </vehicle>
    <vehicle id="off102" depart="1104.00" departLane="best" departSpeed="max">
        <route edges="C5C4 C4C3 C3C2 C2B2 B2B3"/>
    </vehicle>
    <vehicle id="off103" depart="1106.00" departLane="best" departSpeed="max">
        <route edges="C2D2 D2C2 C2B2 B2A2 A2B2"/>
    </vehicle>
    <vehicle id="off104" depart="1108.00" departLane="best" departSpeed="max">
        <route edges="C2B2 B2B3 B3B4 B4C4 C4D4 D4E4 E4F4 F4F5 F5E5"/>
    </vehicle>
    <vehicle id="off105" depart="1110.00" departLane="best" departSpeed="max">
        <route edges="B4A4 A4A3 A3B3 B3C3 C3D3 D3E3 E3E2"/>
    </vehicle>
    <vehicle id="off106" depart="1112.00" departLane="best" departSpeed="max">
        <route edges="C4C3 C3C2"/>
    </vehicle>
    <vehicle id="off107" depart="1114.00" departLane="best" departSpeed="max">
        <route edges="F3F4 F4E4 E4E5 E5F5 F5F4"/>
    </vehicle>
    <vehicle id="off108" depart="1116.00" departLane="best" departSpeed="max">
        <route edges="D1E1 E1E0"/>
    </vehicle>
    <vehicle id="off109" depart="1118.00" departLane="best" departSpeed="max">
        <route edges="B0C0 C0C1 C1C2 C2C3 C3C4 C4C5 C5B5 B5A5"/>
    </vehicle>
    <vehicle id="off110" depart="1120.00" departLane="best" departSpeed="max">
        <route edges="F4F3 F3F2 F2E2 E2D2 D2D3"/>
    </vehicle>
    <vehicle id="off111" depart="1122.00" departLane="best" departSpeed="max">
        <route edges="D1D2 D2E2 E2D2"/>
    </vehicle>
    <vehicle id="off112" depart="1124.00" departLane="best" departSpeed="max">
        <route edges="A2A3 A3B3 B3C3 C3D3 D3D2 D2E2"/>
    </vehicle>
    <vehicle id="off113" depart="1126.00" departLane="best" departSpeed="max">
        <route edges="D0C0 C0C1 C1C2 C2C3 C3C4 C4C5 C5D5 D5E5 E5E4"/>
    </vehicle>
    <vehicle id="off114" depart="1128.00" departLane="best" departSpeed="max">
        <route edges="B0C0 C0D0 D0E0 E0F0 F0F1 F1F2 F2F3 F3F4 F4E4"/>
    </vehicle>
    <vehicle id="off115" depart="1130.00" departLane="best" departSpeed="max">
        <route edges="A3A4 A4B4 B4B3 B3B2 B2B1 B1C1"/>
    </vehicle>
    <vehicle id="off116" depart="1132.00" departLane="best" departSpeed="max">
        <route edges="D3C3 C3C4 C4C5 C5D5 D5E5"/>
    </vehicle>
    <vehicle id="off117" depart="1134.00" departLane="best" departSpeed="max">
        <route edges="B3B2 B2B3 B3B4 B4B5 B5A5 A5A4"/>
    </vehicle>
    <vehicle id="off118" depart="1136.00" departLane="best" departSpeed="max">
        <route edges="F1E1 E1D1 D1C1 C1B1 B1B2 B2B3 B3B4"/>
    </vehicle>
    <vehicle id="off119" depart="1138.00" departLane="best" departSpeed="max">
        <route edges="D3C3 C3D3 D3E3"/>
    </vehicle>
    <vehicle id="off120" depart="1140.00" departLane="best" departSpeed="max">
        <route edges="C3C2 C2D2 D2E2"/>
    </vehicle>
    <vehicle id="off121" depart="1142.00" departLane="best" departSpeed="max">
        <route edges="D0E0 E0F0 F0F1 F1F2 F2F3 F3E3"/>
    </vehicle>
    <vehicle id="off122" depart="1144.00" departLane="best" departSpeed="max">
        <route edges="B2B1 B1C1 C1D1 D1E1 E1D1"/>
    </vehicle>
    <vehicle id="off123" depart="1146.00" departLane="best" departSpeed="max">
        <route edges="B3B2 B2C2 C2C3"/>
    </vehicle>
    <vehicle id="off124" depart="1148.00" departLane="best" departSpeed="max">
        <route edges="D5D4 D4C4 C4B4 B4B5 B5A5"/>
    </vehicle>
    <vehicle id="off125" depart="1150.00" departLane="best" departSpeed="max">
        <route edges="B5C5 C5D5 D5E5 E5E4 E4E3 E3E2 E2E1"/>
    </vehicle>
    <vehicle id="off126" depart="1152.00" departLane="best" departSpeed="max">
        <route edges="A3A2 A2B2 B2B3 B3B4 B4C4 C4C3"/>
    </vehicle>
    <vehicle id="off127" depart="1154.00" departLane="best" departSpeed="max">
        <route edges="F5F4"/>
    </vehicle>
    <vehicle id="off128" depart="1156.00" departLane="best" departSpeed="max">
        <route edges="A3A2 A2B2 B2B3"/>
    </vehicle>
    <vehicle id="off129" depart="1158.00" departLane="best" departSpeed="max">
        <route edges="B4A4 A4A3 A3A2 A2B2 B2C2 C2D2 D2E2 E2F2 F2F3"/>
    </vehicle>
    <vehicle id="off130" depart="1160.00" departLane="best" departSpeed="max">
        <route edges="F0F1"/>
    </vehicle>
    <vehicle id="off131" depart="1162.00" departLane="best" departSpeed="max">
        <route edges="C1D1 D1D0 D0C0 C0B0 B0C0"/>
    </vehicle>
    <vehicle id="off132" depart="1164.00" departLane="best" departSpeed="max">
        <route edges="E4F4 F4F3 F3F2 F2F1 F1E1 E1E0 E0F0"/>
    </vehicle>
    <vehicle id="off133" depart="1166.00" departLane="best" departSpeed="max">
        <route edges="D3D4 D4E4 E4F4 F4F5 F5E5"/>
    </vehicle>
    <vehicle id="off134" depart="1168.00" departLane="best" departSpeed="max">
        <route edges="D4E4 E4E3 E3E2 E2E1 E1E0 E0D0 D0C0 C0B0 B0A0 A0A1"/>
    </vehicle>
    <vehicle id="off135" depart="1170.00" departLane="best" departSpeed="max">
        <route edges="E4E3 E3D3 D3C3 C3B3 B3B4 B4B5 B5A5"/>
    </vehicle>
    <vehicle id="off136" depart="1172.00" departLane="best" departSpeed="max">
        <route edges="D5C5 C5C4 C4D4 D4E4 E4F4 F4F3 F3E3"/>
    </vehicle>
    <vehicle id="off137" depart="1174.00" departLane="best" departSpeed="max">
        <route edges="B0A0 A0A1 A1A2 A2A3 A3A4 A4B4"/>
    </vehicle>
    <vehicle id="off138" depart="1176.00" departLane="best" departSpeed="max">
        <route edges="A4A5 A5B5 B5C5 C5C4 C4C3 C3C2 C2C1 C1D1 D1E1"/>
    </vehicle>
    <vehicle id="off139" depart="1178.00" departLane="best" departSpeed="max">
        <route edges="B4B3 B3C3 C3D3 D3D2"/>
    </vehicle>
    <vehicle id="off140" depart="1180.00" departLane="best" departSpeed="max">
        <route edges="E1E0 E0D0 D0C0 C0C1 C1C2 C2B2 B2B1"/>
    </vehicle>
    <vehicle id="off141" depart="1182.00" departLane="best" departSpeed="max">
        <route edges="D4D3 D3C3 C3B3 B3B4 B4A4"/>
    </vehicle>
    <vehicle id="off142" depart="1184.00" departLane="best" departSpeed="max">
        <route edges="C5C4 C4C3 C3C2 C2C1 C1D1 D1E1 E1F1 F1F2"/>
    </vehicle>
    <vehicle id="off143" depart="1186.00" departLane="best" departSpeed="max">
        <route edges="E5D5 D5C5 C5B5 B5A5 A5A4 A4A3"/>
    </vehicle>
    <vehicle id="off144" depart="1188.00" departLane="best" departSpeed="max">
        <route edges="C3C2 C2B2 B2B3 B3B4 B4B5"/>
    </vehicle>
    <vehicle id="off145" depart="1190.00" departLane="best" departSpeed="max">
        <route edges="A0A1 A1A2 A2B2 B2C2 C2D2 D2E2 E2F2"/>
    </vehicle>
    <vehicle id="off146" depart="1192.00" departLane="best" departSpeed="max">
        <route edges="D4D3 D3C3 C3B3 B3B4 B4A4"/>
    </vehicle>
    <vehicle id="off147" depart="1194.00" departLane="best" departSpeed="max">
        <route edges="E1F1 F1E1 E1D1 D1E1"/>
    </vehicle>
    <vehicle id="off148" depart="1196.00" departLane="best" departSpeed="max">
        <route edges="C3C4 C4B4 B4A4 A4A3 A3A2 A2A1 A1A0 A0B0"/>
    </vehicle>
    <vehicle id="off149" depart="1198.00" departLane="best" departSpeed="max">
        <route edges="A3A4 A4B4 B4C4 C4C3 C3C2 C2C1 C1C0 C0D0 D0E0 E0F0 F0F1"/>
    </vehicle>
    <vehicle id="off150" depart="1200.00" departLane="best" departSpeed="max">
        <route edges="F1F2 F2E2 E2E1 E1D1 D1D2"/>
    </vehicle>
    <vehicle id="off151" depart="1202.00" departLane="best" departSpeed="max">
        <route edges="E4F4 F4F3 F3F2 F2E2 E2D2 D2D3"/>
    </vehicle>
    <vehicle id="off152" depart="1204.00" departLane="best" departSpeed="max">
        <route edges="B0B1 B1B2 B2B3 B3B4 B4A4 A4A5 A5B5"/>
    </vehicle>
    <vehicle id="off153" depart="1206.00" departLane="best" departSpeed="max">
        <route edges="B5B4 B4B3 B3B2 B2C2 C2D2 D2E2 E2F2 F2F1 F1F0"/>
    </vehicle>
    <vehicle id="off154" depart="1208.00" departLane="best" departSpeed="max">
        <route edges="E3E4 E4E5 E5F5"/>
    </vehicle>
    <vehicle id="off155" depart="1210.00" departLane="best" departSpeed="max">
        <route edges="F1F0 F0E0 E0D0 D0C0 C0B0 B0B1 B1B2 B2B3"/>
    </vehicle>
    <vehicle id="off156" depart="1212.00" departLane="best" departSpeed="max">
        <route edges="B3B4 B4A4 A4A5"/>
    </vehicle>
    <vehicle id="off157" depart="1214.00" departLane="best" departSpeed="max">
        <route edges="E3D3 D3D2 D2E2 E2F2 F2F1 F1E1"/>
    </vehicle>
    <vehicle id="off158" depart="1216.00" departLane="best" departSpeed="max">
        <route edges="C2D2 D2D3 D3E3"/>
    </vehicle>
    <vehicle id="off159" depart="1218.00" departLane="best" departSpeed="max">
        <route edges="B0C0 C0D0 D0E0 E0F0 F0F1 F1F2 F2F3"/>
    </vehicle>
    <vehicle id="off160" depart="1220.00" departLane="best" departSpeed="max">
        <route edges="E5F5 F5F4 F4F5"/>
    </vehicle>
    <vehicle id="off161" depart="1222.00" departLane="best" departSpeed="max">
        <route edges="E4D4 D4D3 D3D2 D2D1 D1D0 D0E0 E0F0 F0F1"/>
    </vehicle>
    <vehicle id="off162" depart="1224.00" departLane="best" departSpeed="max">
        <route edges="A1A0 A0B0 B0C0 C0D0 D0D1 D1E1 E1F1"/>
    </vehicle>
    <vehicle id="off163" depart="1226.00" departLane="best" departSpeed="max">
        <route edges="C0C1 C1C2 C2D2 D2E2 E2F2 F2F3"/>
    </vehicle>
    <vehicle id="off164" depart="1228.00" departLane="best" departSpeed="max">
        <route edges="E3F3 F3F4 F4E4 E4E5 E5F5"/>
    </vehicle>
    <vehicle id="off165" depart="1230.00" departLane="best" departSpeed="max">
        <route edges="E4D4 D4C4 C4B4 B4B3"/>
    </vehicle>
    <vehicle id="off166" depart="1232.00" departLane="best" departSpeed="max">
        <route edges="E3E2 E2D2 D2C2 C2B2 B2A2 A2A3 A3A4 A4A5"/>
    </vehicle>
    <vehicle id="off167" depart="1234.00" departLane="best" departSpeed="max">
        <route edges="F0E0 E0E1 E1E2 E2E3 E3E4 E4E5 E5F5"/>
    </vehicle>
    <vehicle id="off168" depart="1236.00" departLane="best" departSpeed="max">
        <route edges="B2C2 C2D2 D2E2 E2E3 E3E4 E4D4"/>
    </vehicle>
    <vehicle id="off169" depart="1238.00" departLane="best" departSpeed="max">
        <route edges="C4C5 C5B5 B5B4"/>
    </vehicle>
    <vehicle id="off170" depart="1240.00" departLane="best" departSpeed="max">
        <route edges="E3E4 E4D4 D4C4 C4B4 B4B3 B3A3"/>
    </vehicle>
    <vehicle id="off171" depart="1242.00" departLane="best" departSpeed="max">
        <route edges="A1A0 A0B0 B0B1 B1B2 B2A2"/>
    </vehicle>
    <vehicle id="off172" depart="1244.00" departLane="best" departSpeed="max">
        <route edges="C0C1 C1C2 C2C3 C3C4 C4C5 C5D5 D5E5 E5F5"/>
    </vehicle>
    <vehicle id="off173" depart="1246.00" departLane="best" departSpeed="max">
        <route edges="F4F3 F3E3 E3D3 D3C3 C3B3 B3B4 B4B5"/>
    </vehicle>
    <vehicle id="off174" depart="1248.00" departLane="best" departSpeed="max">
        <route edges="D4D3 D3D2 D2C2 C2C3"/>
    </vehicle>
    <vehicle id="off175" depart="1250.00" departLane="best" departSpeed="max">
        <route edges="F4F5 F5E5 E5D5 D5D4 D4D3 D3D2 D2D1 D1D0"/>
    </vehicle>
    <vehicle id="off176" depart="1252.00" departLane="best" departSpeed="max">
        <route edges="F3E3 E3D3 D3C3 C3B3 B3A3 A3A4 A4B4"/>
    </vehicle>
    <vehicle id="off177" depart="1254.00" departLane="best" departSpeed="max">
        <route edges="F4F3 F3F2 F2F1 F1E1 E1D1 D1C1 C1B1 B1B2"/>
    </vehicle>
    <vehicle id="off178" depart="1256.00" departLane="best" departSpeed="max">
        <route edges="F4E4 E4D4 D4C4 C4B4 B4A4"/>
    </vehicle>
    <vehicle id="off179" depart="1258.00" departLane="best" departSpeed="max">
        <route edges="A4B4 B4C4 C4C3 C3D3"/>
    </vehicle>
    <vehicle id="off180" depart="1260.00" departLane="best" departSpeed="max">
        <route edges="E1E2 E2D2 D2C2 C2B2 B2B3 B3B4 B4B5 B5C5"/>
    </vehicle>
    <vehicle id="off181" depart="1262.00" departLane="best" departSpeed="max">
        <route edges="D3D2 D2D1 D1D0 D0D1"/>
    </vehicle>
    <vehicle id="off182" depart="1264.00" departLane="best" departSpeed="max">
        <route edges="C2C1 C1D1 D1D2 D2D3"/>
    </vehicle>
    <vehicle id="off183" depart="1266.00" departLane="best" departSpeed="max">
        <route edges="B3C3 C3D3 D3E3 E3E2 E2E1 E1D1"/>
    </vehicle>
    <vehicle id="off184" depart="1268.00" departLane="best" departSpeed="max">
        <route edges="A0A1 A1A2 A2B2 B2C2 C2D2 D2E2 E2F2 F2F3"/>
    </vehicle>
    <vehicle id="off185" depart="1270.00" departLane="best" departSpeed="max">
        <route edges="D1D0 D0D1 D1E1 E1E0"/>
    </vehicle>
    <vehicle id="off186" depart="1272.00" departLane="best" departSpeed="max">
        <route edges="E2D2 D2D3 D3D4 D4D5 D5D4"/>
    </vehicle>
    <vehicle id="off187" depart="1274.00" departLane="best" departSpeed="max">
        <route edges="C1C2 C2C3 C3B3 B3A3 A3A2"/>
    </vehicle>
    <vehicle id="off188" depart="1276.00" departLane="best" departSpeed="max">
        <route edges="D5C5 C5C4 C4C3 C3C2 C2C1 C1C0 C0C1"/>
    </vehicle>
    <vehicle id="off189" depart="1278.00" departLane="best" departSpeed="max">
        <route edges="B5C5 C5D5 D5E5 E5D5"/>
    </vehicle>
    <vehicle id="off190" depart="1280.00" departLane="best" departSpeed="max">
        <route edges="E1E0 E0D0 D0D1 D1D2 D2D3 D3D4 D4D5 D5C5 C5B5 B5B4"/>
    </vehicle>
    <vehicle id="off191" depart="1282.00" departLane="best" departSpeed="max">
        <route edges="B5C5 C5C4 C4C3 C3B3"/>
    </vehicle>
    <vehicle id="off192" depart="1284.00" departLane="best" departSpeed="max">
        <route edges="C2D2 D2D3 D3D4 D4D5 D5C5 C5B5 B5A5"/>
    </vehicle>
    <vehicle id="off193" depart="1286.00" departLane="best" departSpeed="max">
        <route edges="A5B5 B5C5 C5C4 C4C3 C3C2"/>
    </vehicle>
    <vehicle id="off194" depart="1288.00" departLane="best" departSpeed="max">
        <route edges="F3E3 E3D3 D3D4 D4D5 D5E5"/>
    </vehicle>