<?xml version="1.0" encoding="UTF-8"?>

<!-- generated on 2025-08-13 19:21:08.548198 by randomTrips.py v1_24_0+0000-b72eb3fabc8
<configuration>
    <net-file value="sumo/scenarios/rushhour/net.net.xml"/>
    <route-file value="sumo/scenarios/rushhour/routes_evening.rou.xml"/>
    <prefix value="pm"/>
    <trip-attributes value="departLane=&quot;best&quot; departSpeed=&quot;max&quot;"/>
    <seed value="43"/>
    <begin value="1800.0"/>
    <end value="2700.0"/>
    <period value="0.5"/>
</configuration>
-->

<!-- generated on 2025-08-13 19:21:08 by Eclipse SUMO duarouter Version 1.24.0
<duarouterConfiguration xmlns:xsi="http://www.w3.org/2001/XMLSchema-instance" xsi:noNamespaceSchemaLocation="http://sumo.dlr.de/xsd/duarouterConfiguration.xsd">

    <input>
        <net-file value="sumo/scenarios/rushhour/net.net.xml"/>
        <route-files value="trips.trips.xml"/>
    </input>

    <output>
        <output-file value="sumo/scenarios/rushhour/routes_evening.rou.xml"/>
        <alternatives-output value="NUL"/>
    </output>

    <time>
        <begin value="1800.0"/>
        <end value="2700.0"/>
    </time>

    <report>
        <no-warnings value="true"/>
        <ignore-errors value="true"/>
        <no-step-log value="true"/>
    </report>

</duarouterConfiguration>
-->

<routes xmlns:xsi="http://www.w3.org/2001/XMLSchema-instance" xsi:noNamespaceSchemaLocation="http://sumo.dlr.de/xsd/routes_file.xsd">
    <vehicle id="pm0" depart="1800.00" departLane="best" departSpeed="max">
        <route edges="A1B1 B1C1 C1D1 D1D0 D0E0 E0E1"/>
    </vehicle>
    <vehicle id="pm1" depart="1800.50" departLane="best" departSpeed="max">
        <route edges="B0B1 B1B2 B2B3 B3B4 B4C4 C4C5"/>
    </vehicle>
    <vehicle id="pm2" depart="1801.00" departLane="best" departSpeed="max">
        <route edges="D5D4 D4D3 D3E3 E3E4"/>
    </vehicle>
    <vehicle id="pm3" depart="1801.50" departLane="best" departSpeed="max">
        <route edges="C4C3 C3C4 C4C5 C5D5"/>
    </vehicle>
    <vehicle id="pm4" depart="1802.00" departLane="best" departSpeed="max">
        <route edges="A1A0 A0B0 B0C0 C0C1 C1C2 C2C3 C3C4"/>
    </vehicle>
    <vehicle id="pm5" depart="1802.50" departLane="best" departSpeed="max">
        <route edges="C1D1 D1D2 D2D3 D3D4 D4D5 D5E5 E5E4"/>
    </vehicle>
    <vehicle id="pm6" depart="1803.00" departLane="best" departSpeed="max">
        <route edges="D1D2 D2E2 E2E1"/>
    </vehicle>
    <vehicle id="pm7" depart="1803.50" departLane="best" departSpeed="max">
        <route edges="C3D3 D3D2 D2D1 D1C1 C1B1 B1B2"/>
    </vehicle>
    <vehicle id="pm8" depart="1804.00" departLane="best" departSpeed="max">
        <route edges="E5E4 E4E3"/>
    </vehicle>
    <vehicle id="pm9" depart="1804.50" departLane="best" departSpeed="max">
        <route edges="C2B2 B2B3 B3B4 B4A4 A4A3"/>
    </vehicle>
    <vehicle id="pm10" depart="1805.00" departLane="best" departSpeed="max">
        <route edges="D0D1 D1D2 D2D3 D3D4 D4C4 C4C5 C5D5"/>
    </vehicle>
    <vehicle id="pm11" depart="1805.50" departLane="best" departSpeed="max">
        <route edges="E2F2 F2F3 F3E3 E3D3 D3C3"/>
    </vehicle>
    <vehicle id="pm12" depart="1806.00" departLane="best" departSpeed="max">
        <route edges="D0C0 C0C1 C1C2 C2D2 D2D3"/>
    </vehicle>
    <vehicle id="pm13" depart="1806.50" departLane="best" departSpeed="max">
        <route edges="C2B2 B2A2 A2A1"/>
    </vehicle>
    <vehicle id="pm14" depart="1807.00" departLane="best" departSpeed="max">
        <route edges="A2B2 B2C2 C2D2 D2E2 E2E3 E3F3 F3F2"/>
    </vehicle>
    <vehicle id="pm15" depart="1807.50" departLane="best" departSpeed="max">
        <route edges="E4F4 F4F5 F5E5 E5D5 D5C5 C5B5 B5A5"/>
    </vehicle>
    <vehicle id="pm16" depart="1808.00" departLane="best" departSpeed="max">
        <route edges="F1E1 E1D1 D1D0 D0E0"/>
    </vehicle>
    <vehicle id="pm17" depart="1808.50" departLane="best" departSpeed="max">
        <route edges="A4A5 A5B5 B5C5 C5D5 D5E5 E5E4"/>
    </vehicle>
    <vehicle id="pm18" depart="1809.00" departLane="best" departSpeed="max">
        <route edges="D2E2 E2F2 F2F3"/>
    </vehicle>
    <vehicle id="pm19" depart="1809.50" departLane="best" departSpeed="max">
        <route edges="D5E5 E5E4 E4D4 D4C4 C4B4 B4A4 A4A3"/>
    </vehicle>
    <vehicle id="pm20" depart="1810.00" departLane="best" departSpeed="max">
        <route edges="D3E3 E3E2"/>
    </vehicle>
    <vehicle id="pm21" depart="1810.50" departLane="best" departSpeed="max">
        <route edges="F1F0 F0E0 E0D0 D0C0 C0C1"/>
    </vehicle>
    <vehicle id="pm22" depart="1811.00" departLane="best" departSpeed="max">
        <route edges="D1C1 C1C0 C0D0 D0E0 E0F0"/>
    </vehicle>
    <vehicle id="pm23" depart="1811.50" departLane="best" departSpeed="max">
        <route edges="B1B0 B0C0 C0D0 D0E0 E0E1 E1E2 E2E3 E3E4 E4E5 E5D5"/>
    </vehicle>
    <vehicle id="pm24" depart="1812.00" departLane="best" departSpeed="max">
        <route edges="E3D3 D3D2 D2C2 C2B2 B2A2 A2A3"/>
    </vehicle>
    <vehicle id="pm25" depart="1812.50" departLane="best" departSpeed="max">
        <route edges="D2E2 E2E1 E1D1 D1C1 C1D1"/>
    </vehicle>
    <vehicle id="pm26" depart="1813.00" departLane="best" departSpeed="max">
        <route edges="B1C1 C1C2 C2C3 C3D3 D3D2"/>
    </vehicle>
    <vehicle id="pm27" depart="1813.50" departLane="best" departSpeed="max">
        <route edges="F4F3 F3F2 F2E2 E2D2 D2D1 D1E1"/>
    </vehicle>
    <vehicle id="pm28" depart="1814.00" departLane="best" departSpeed="max">
        <route edges="A4B4 B4C4 C4C5 C5D5"/>
    </vehicle>
    <vehicle id="pm29" depart="1814.50" departLane="best" departSpeed="max">
        <route edges="E3D3 D3E3 E3F3 F3F4"/>
    </vehicle>
    <vehicle id="pm30" depart="1815.00" departLane="best" departSpeed="max">
        <route edges="E1D1 D1C1 C1B1 B1A1 A1B1"/>
    </vehicle>
    <vehicle id="pm31" depart="1815.50" departLane="best" departSpeed="max">
        <route edges="F4E4 E4D4 D4D3 D3D2"/>
    </vehicle>
    <vehicle id="pm32" depart="1816.00" departLane="best" departSpeed="max">
        <route edges="A3B3 B3B4 B4A4 A4A5 A5B5"/>
    </vehicle>
    <vehicle id="pm33" depart="1816.50" departLane="best" departSpeed="max">
        <route edges="A3B3 B3C3 C3D3 D3D4 D4D5 D5C5"/>
    </vehicle>
    <vehicle id="pm34" depart="1817.00" departLane="best" departSpeed="max">
        <route edges="B0C0 C0C1 C1C2 C2C3 C3D3 D3E3 E3F3"/>
    </vehicle>
    <vehicle id="pm35" depart="1817.50" departLane="best" departSpeed="max">
        <route edges="A4B4 B4C4 C4D4 D4D3 D3D2 D2D1 D1D0"/>
    </vehicle>
    <vehicle id="pm36" depart="1818.00" departLane="best" departSpeed="max">
        <route edges="C4B4 B4A4 A4A3 A3A2 A2A1 A1B1"/>
    </vehicle>
    <vehicle id="pm37" depart="1818.50" departLane="best" departSpeed="max">
        <route edges="A0A1 A1B1 B1C1 C1D1 D1E1 E1F1 F1F2"/>
    </vehicle>
    <vehicle id="pm38" depart="1819.00" departLane="best" departSpeed="max">
        <route edges="F4F5 F5E5 E5D5 D5C5 C5B5 B5A5 A5A4"/>
    </vehicle>
    <vehicle id="pm39" depart="1819.50" departLane="best" departSpeed="max">
        <route edges="E1F1 F1F2 F2F3 F3F4 F4F5 F5E5"/>
    </vehicle>
    <vehicle id="pm40" depart="1820.00" departLane="best" departSpeed="max">
        <route edges="F1F2 F2F1 F1E1"/>
    </vehicle>
    <vehicle id="pm41" depart="1820.50" departLane="best" departSpeed="max">
        <route edges="C0D0 D0D1 D1E1 E1E0"/>
    </vehicle>
    <vehicle id="pm42" depart="1821.00" departLane="best" departSpeed="max">
        <route edges="C5D5 D5E5 E5F5 F5F4 F4F3 F3E3"/>
    </vehicle>
    <vehicle id="pm43" depart="1821.50" departLane="best" departSpeed="max">
        <route edges="E0F0 F0F1 F1F2 F2F3 F3F4 F4F5 F5E5 E5D5"/>
    </vehicle>
    <vehicle id="pm44" depart="1822.00" departLane="best" departSpeed="max">
        <route edges="E5E4 E4E3 E3E2 E2D2 D2C2 C2C1"/>
    </vehicle>
    <vehicle id="pm45" depart="1822.50" departLane="best" departSpeed="max">
        <route edges="E1D1 D1C1 C1B1 B1B2 B2B3 B3B4 B4A4 A4A3"/>
    </vehicle>
    <vehicle id="pm46" depart="1823.00" departLane="best" departSpeed="max">
        <route edges="B2B1 B1C1 C1D1 D1E1 E1F1 F1F2 F2F3 F3E3"/>
    </vehicle>
    <vehicle id="pm47" depart="1823.50" departLane="best" departSpeed="max">
        <route edges="C2D2 D2E2 E2E1 E1E0 E0D0"/>
    </vehicle>
    <vehicle id="pm48" depart="1824.00" departLane="best" departSpeed="max">
        <route edges="D2D3 D3D4 D4C4 C4B4 B4A4"/>
    </vehicle>
    <vehicle id="pm49" depart="1824.50" departLane="best" departSpeed="max">
        <route edges="D2E2 E2F2 F2E2"/>
    </vehicle>
    <vehicle id="pm50" depart="1825.00" departLane="best" departSpeed="max">
        <route edges="C0C1 C1B1"/>
    </vehicle>
    <vehicle id="pm51" depart="1825.50" departLane="best" departSpeed="max">
        <route edges="B1C1 C1B1 B1B2"/>
    </vehicle>
    <vehicle id="pm52" depart="1826.00" departLane="best" departSpeed="max">
        <route edges="E4E5 E5E4 E4E3 E3E2 E2E1 E1E0 E0F0"/>
    </vehicle>
    <vehicle id="pm53" depart="1826.50" departLane="best" departSpeed="max">
        <route edges="F4E4 E4E5 E5D5 D5D4"/>
    </vehicle>
    <vehicle id="pm54" depart="1827.00" departLane="best" departSpeed="max">
        <route edges="F4E4 E4D4 D4C4 C4B4 B4B3 B3B2 B2C2"/>
    </vehicle>
    <vehicle id="pm55" depart="1827.50" departLane="best" departSpeed="max">
        <route edges="B1C1 C1C2 C2B2 B2B3"/>
    </vehicle>
    <vehicle id="pm56" depart="1828.00" departLane="best" departSpeed="max">
        <route edges="C2C1 C1D1 D1E1 E1F1 F1F2 F2F3 F3F4 F4F5 F5E5"/>
    </vehicle>
    <vehicle id="pm57" depart="1828.50" departLane="best" departSpeed="max">
        <route edges="B2C2 C2C3 C3C4 C4C3"/>
    </vehicle>
    <vehicle id="pm58" depart="1829.00" departLane="best" departSpeed="max">
        <route edges="A2B2 B2B1 B1A1 A1A2"/>
    </vehicle>
    <vehicle id="pm59" depart="1829.50" departLane="best" departSpeed="max">
        <route edges="D1D2 D2D3 D3D4"/>
    </vehicle>
    <vehicle id="pm60" depart="1830.00" departLane="best" departSpeed="max">
        <route edges="D0D1 D1E1 E1F1 F1F2 F2E2"/>
    </vehicle>
    <vehicle id="pm61" depart="1830.50" departLane="best" departSpeed="max">
        <route edges="E5F5 F5F4 F4F3 F3F4"/>
    </vehicle>
    <vehicle id="pm62" depart="1831.00" departLane="best" departSpeed="max">
        <route edges="D2D3 D3D4 D4C4 C4B4 B4A4"/>
    </vehicle>
    <vehicle id="pm63" depart="1831.50" departLane="best" departSpeed="max">
        <route edges="A5B5 B5C5 C5D5 D5D4 D4D3 D3D2 D2E2 E2E3"/>
    </vehicle>
    <vehicle id="pm64" depart="1832.00" departLane="best" departSpeed="max">
        <route edges="B0C0 C0B0 B0A0 A0A1"/>
    </vehicle>
    <vehicle id="pm65" depart="1832.50" departLane="best" departSpeed="max">
        <route edges="E0E1 E1E2 E2E3 E3E4 E4E5 E5D5 D5C5 C5B5 B5A5 A5A4"/>
    </vehicle>
    <vehicle id="pm66" depart="1833.00" departLane="best" departSpeed="max">
        <route edges="D3E3 E3E2 E2D2 D2C2 C2B2 B2B1"/>
    </vehicle>
    <vehicle id="pm67" depart="1833.50" departLane="best" departSpeed="max">
        <route edges="C3C4 C4B4 B4A4 A4A3 A3A2 A2A1 A1A0 A0B0"/>
    </vehicle>
    <vehicle id="pm68" depart="1834.00" departLane="best" departSpeed="max">
        <route edges="C2B2 B2B1 B1B0 B0C0 C0C1"/>
    </vehicle>
    <vehicle id="pm69" depart="1834.50" departLane="best" departSpeed="max">
        <route edges="B4A4 A4A3 A3A2 A2A1 A1B1 B1B0 B0A0"/>
    </vehicle>
    <vehicle id="pm70" depart="1835.00" departLane="best" departSpeed="max">
        <route edges="D2D3 D3E3 E3E2 E2E1 E1E0 E0E1"/>
    </vehicle>
    <vehicle id="pm71" depart="1835.50" departLane="best" departSpeed="max">
        <route edges="B2A2 A2A1"/>
    </vehicle>
    <vehicle id="pm72" depart="1836.00" departLane="best" departSpeed="max">
        <route edges="B4B3 B3B2 B2B1 B1B0 B0C0 C0D0 D0E0 E0E1"/>
    </vehicle>
    <vehicle id="pm73" depart="1836.50" departLane="best" departSpeed="max">
        <route edges="B4B3 B3C3 C3D3 D3D4 D4D5"/>
    </vehicle>
    <vehicle id="pm74" depart="1837.00" departLane="best" departSpeed="max">
        <route edges="A3A2 A2A1 A1A0 A0B0 B0C0 C0D0 D0E0 E0F0"/>
    </vehicle>
    <vehicle id="pm75" depart="1837.50" departLane="best" departSpeed="max">
        <route edges="B0B1 B1B2 B2C2"/>
    </vehicle>
    <vehicle id="pm76" depart="1838.00" departLane="best" departSpeed="max">
        <route edges="E1E2 E2E3 E3E4 E4E5 E5D5 D5C5 C5B5"/>
    </vehicle>
    <vehicle id="pm77" depart="1838.50" departLane="best" departSpeed="max">
        <route edges="D4D3 D3C3 C3B3 B3B4 B4C4"/>
    </vehicle>
    <vehicle id="pm78" depart="1839.00" departLane="best" departSpeed="max">
        <route edges="D5D4 D4C4 C4B4 B4B5 B5A5"/>
    </vehicle>
    <vehicle id="pm79" depart="1839.50" departLane="best" departSpeed="max">
        <route edges="C5B5 B5C5 C5C4 C4B4"/>
    </vehicle>
    <vehicle id="pm80" depart="1840.00" departLane="best" departSpeed="max">
        <route edges="F2E2 E2E1"/>
    </vehicle>
    <vehicle id="pm81" depart="1840.50" departLane="best" departSpeed="max">
        <route edges="D1D2 D2D3 D3D4 D4E4 E4E5 E5D5"/>
    </vehicle>
    <vehicle id="pm82" depart="1841.00" departLane="best" departSpeed="max">
        <route edges="D3D4 D4E4 E4E3 E3E2 E2E1 E1E0"/>
    </vehicle>
    <vehicle id="pm83" depart="1841.50" departLane="best" departSpeed="max">
        <route edges="D0E0 E0E1 E1D1 D1D2 D2D3"/>
    </vehicle>
    <vehicle id="pm84" depart="1842.00" departLane="best" departSpeed="max">
        <route edges="B2B3 B3C3 C3D3 D3E3 E3E2 E2F2 F2F3"/>
    </vehicle>
    <vehicle id="pm85" depart="1842.50" departLane="best" departSpeed="max">
        <route edges="D4D3 D3D4 D4E4 E4E3"/>
    </vehicle>
    <vehicle id="pm86" depart="1843.00" departLane="best" departSpeed="max">
        <route edges="D3D2 D2D1 D1C1 C1B1 B1A1 A1A0"/>
    </vehicle>
    <vehicle id="pm87" depart="1843.50" departLane="best" departSpeed="max">
        <route edges="A4A5 A5B5 B5B4 B4B3 B3B2 B2B1 B1B0 B0C0 C0D0 D0E0 E0F0 F0F1"/>
    </vehicle>
    <vehicle id="pm88" depart="1844.00" departLane="best" departSpeed="max">
        <route edges="E0E1 E1F1 F1F2"/>
    </vehicle>
    <vehicle id="pm89" depart="1844.50" departLane="best" departSpeed="max">
        <route edges="F1F0 F0E0 E0D0 D0C0 C0C1 C1C2 C2C3 C3B3 B3A3"/>
    </vehicle>
    <vehicle id="pm90" depart="1845.00" departLane="best" departSpeed="max">
        <route edges="F5E5 E5E4 E4E3 E3D3 D3D4"/>
    </vehicle>
    <vehicle id="pm91" depart="1845.50" departLane="best" departSpeed="max">
        <route edges="E1E2 E2E1 E1E0 E0D0 D0D1"/>
    </vehicle>
    <vehicle id="pm92" depart="1846.00" departLane="best" departSpeed="max">
        <route edges="B3C3 C3C4 C4C5 C5C4"/>
    </vehicle>
    <vehicle id="pm93" depart="1846.50" departLane="best" departSpeed="max">
        <route edges="C4C5 C5B5 B5A5"/>
    </vehicle>
    <vehicle id="pm94" depart="1847.00" departLane="best" departSpeed="max">
        <route edges="C1B1 B1B2 B2B3 B3C3 C3C4 C4B4"/>
    </vehicle>
    <vehicle id="pm95" depart="1847.50" departLane="best" departSpeed="max">
        <route edges="B4B3 B3B2 B2B1 B1B0 B0A0"/>
    </vehicle>
    <vehicle id="pm96" depart="1848.00" departLane="best" departSpeed="max">
        <route edges="E3F3 F3F2 F2F1 F1E1 E1D1 D1C1 C1C0"/>
    </vehicle>
    <vehicle id="pm97" depart="1848.50" departLane="best" departSpeed="max">
        <route edges="C1C2 C2C3 C3D3 D3E3 E3E2"/>
    </vehicle>
    <vehicle id="pm98" depart="1849.00" departLane="best" departSpeed="max">
        <route edges="E0E1 E1E2 E2E3 E3E4 E4D4 D4C4 C4B4"/>
    </vehicle>
    <vehicle id="pm99" depart="1849.50" departLane="best" departSpeed="max">
        <route edges="B5C5 C5D5 D5D4 D4D3 D3E3 E3E4"/>
    </vehicle>
    <vehicle id="pm100" depart="1850.00" departLane="best" departSpeed="max">
        <route edges="B3B2 B2C2 C2C3 C3C4 C4C5"/>
    </vehicle>
    <vehicle id="pm101" depart="1850.50" departLane="best" departSpeed="max">
        <route edges="C1D1 D1E1 E1E2 E2E3 E3E4 E4E5 E5F5 F5F4"/>
    </vehicle>
    <vehicle id="pm102" depart="1851.00" departLane="best" departSpeed="max">
        <route edges="B3B2 B2C2 C2D2 D2D3 D3C3"/>
    </vehicle>
    <vehicle id="pm103" depart="1851.50" departLane="best" departSpeed="max">
        <route edges="D1C1 C1B1 B1B2 B2A2 A2A1"/>
    </vehicle>
    <vehicle id="pm104" depart="1852.00" departLane="best" departSpeed="max">
        <route edges="B1B2 B2C2 C2D2 D2E2 E2F2 F2F1 F1E1"/>
    </vehicle>
    <vehicle id="pm105" depart="1852.50" departLane="best" departSpeed="max">
        <route edges="E3E2 E2D2 D2C2 C2B2 B2B3"/>
    </vehicle>
    <vehicle id="pm106" depart="1853.00" departLane="best" departSpeed="max">
        <route edges="B1B2 B2C2 C2D2 D2E2 E2F2 F2F3 F3E3"/>
    </vehicle>
    <vehicle id="pm107" depart="1853.50" departLane="best" departSpeed="max">
        <route edges="D2E2 E2E1 E1D1"/>
    </vehicle>
    <vehicle id="pm108" depart="1854.00" departLane="best" departSpeed="max">
        <route edges="F1F2 F2F3 F3F4 F4E4 E4D4 D4C4 C4B4 B4A4"/>
    </vehicle>
    <vehicle id="pm109" depart="1854.50" departLane="best" departSpeed="max">
        <route edges="C5D5 D5E5 E5F5 F5F4 F4F3 F3F2 F2E2"/>
    </vehicle>
    <vehicle id="pm110" depart="1855.00" departLane="best" departSpeed="max">
        <route edges="B1C1 C1C2 C2B2 B2B3 B3C3"/>
    </vehicle>
    <vehicle id="pm111" depart="1855.50" departLane="best" departSpeed="max">
        <route edges="F0F1 F1E1 E1E2 E2E3 E3E4 E4F4"/>
    </vehicle>
    <vehicle id="pm112" depart="1856.00" departLane="best" departSpeed="max">
        <route edges="D0D1 D1C1 C1B1 B1B0 B0A0"/>
    </vehicle>
    <vehicle id="pm113" depart="1856.50" departLane="best" departSpeed="max">
        <route edges="E4E5 E5D5 D5C5 C5B5 B5C5"/>
    </vehicle>
    <vehicle id="pm114" depart="1857.00" departLane="best" departSpeed="max">
        <route edges="E2E1 E1D1 D1C1 C1B1 B1B2 B2B3 B3C3"/>
    </vehicle>
    <vehicle id="pm115" depart="1857.50" departLane="best" departSpeed="max">
        <route edges="B0C0 C0D0 D0E0 E0E1"/>
    </vehicle>
    <vehicle id="pm116" depart="1858.00" departLane="best" departSpeed="max">
        <route edges="C2C3 C3C2 C2B2"/>
    </vehicle>
    <vehicle id="pm117" depart="1858.50" departLane="best" departSpeed="max">
        <route edges="C3D3 D3D4 D4C4 C4C5"/>
    </vehicle>
    <vehicle id="pm118" depart="1859.00" departLane="best" departSpeed="max">
        <route edges="C4D4 D4D5"/>
    </vehicle>
    <vehicle id="pm119" depart="1859.50" departLane="best" departSpeed="max">
        <route edges="A4A5 A5B5 B5C5 C5D5 D5E5"/>
    </vehicle>
    <vehicle id="pm120" depart="1860.00" departLane="best" departSpeed="max">
        <route edges="C5C4 C4D4 D4E4 E4E3"/>
    </vehicle>
    <vehicle id="pm121" depart="1860.50" departLane="best" departSpeed="max">
        <route edges="B4C4 C4C5 C5D5 D5D4"/>
    </vehicle>
    <vehicle id="pm122" depart="1861.00" departLane="best" departSpeed="max">
        <route edges="B2B1 B1B0 B0C0 C0D0 D0E0 E0E1"/>
    </vehicle>
    <vehicle id="pm123" depart="1861.50" departLane="best" departSpeed="max">
        <route edges="D5E5 E5E4 E4E3 E3E2 E2E1 E1D1 D1D2"/>
    </vehicle>
    <vehicle id="pm124" depart="1862.00" departLane="best" departSpeed="max">
        <route edges="C5B5 B5B4 B4B3 B3C3 C3D3 D3E3 E3F3 F3F4"/>
    </vehicle>
    <vehicle id="pm125" depart="1862.50" departLane="best" departSpeed="max">
        <route edges="C1C2 C2C3 C3B3 B3A3 A3A4"/>
    </vehicle>
    <vehicle id="pm126" depart="1863.00" departLane="best" departSpeed="max">
        <route edges="C0C1 C1C2 C2B2 B2A2 A2A1"/>
    </vehicle>
    <vehicle id="pm127" depart="1863.50" departLane="best" departSpeed="max">
        <route edges="F1E1 E1E2 E2E3 E3E4 E4F4"/>
    </vehicle>
    <vehicle id="pm128" depart="1864.00" departLane="best" departSpeed="max">
        <route edges="B1C1 C1D1 D1D2 D2D3 D3D4 D4C4"/>
    </vehicle>
    <vehicle id="pm129" depart="1864.50" departLane="best" departSpeed="max">
        <route edges="B2B1 B1C1 C1D1 D1D2 D2D3 D3D4 D4D5 D5E5 E5E4"/>
    </vehicle>
    <vehicle id="pm130" depart="1865.00" departLane="best" departSpeed="max">
        <route edges="C3B3 B3A3 A3A2 A2B2"/>
    </vehicle>
    <vehicle id="pm131" depart="1865.50" departLane="best" departSpeed="max">
        <route edges="D4D3 D3C3 C3B3 B3A3 A3B3"/>
    </vehicle>
    <vehicle id="pm132" depart="1866.00" departLane="best" departSpeed="max">
        <route edges="F1F0 F0E0 E0E1 E1E2 E2F2 F2F3"/>
    </vehicle>
    <vehicle id="pm133" depart="1866.50" departLane="best" departSpeed="max">
        <route edges="D3D4 D4C4 C4C3 C3B3 B3B4"/>
    </vehicle>
    <vehicle id="pm134" depart="1867.00" departLane="best" departSpeed="max">
        <route edges="E2F2 F2F1 F1E1 E1D1 D1C1 C1B1 B1A1 A1B1"/>
    </vehicle>
    <vehicle id="pm135" depart="1867.50" departLane="best" departSpeed="max">
        <route edges="A4B4 B4B5 B5B4"/>
    </vehicle>
    <vehicle id="pm136" depart="1868.00" departLane="best" departSpeed="max">
        <route edges="A3A2 A2A1 A1B1 B1C1 C1D1 D1E1 E1F1 F1F0 F0E0"/>
    </vehicle>
    <vehicle id="pm137" depart="1868.50" departLane="best" departSpeed="max">
        <route edges="D5D4 D4D3 D3E3 E3F3"/>
    </vehicle>
    <vehicle id="pm138" depart="1869.00" departLane="best" departSpeed="max">
        <route edges="D4E4 E4E3 E3D3 D3C3 C3B3 B3B2 B2C2"/>
    </vehicle>
    <vehicle id="pm139" depart="1869.50" departLane="best" departSpeed="max">
        <route edges="B4B5 B5C5 C5D5 D5D4 D4D3 D3D2"/>
    </vehicle>
    <vehicle id="pm140" depart="1870.00" departLane="best" departSpeed="max">
        <route edges="E3E2 E2D2 D2D3 D3D4 D4C4"/>
    </vehicle>
    <vehicle id="pm141" depart="1870.50" departLane="best" departSpeed="max">
        <route edges="C0B0 B0B1 B1B2 B2B3 B3C3 C3D3 D3E3 E3E4"/>
    </vehicle>
    <vehicle id="pm142" depart="1871.00" departLane="best" departSpeed="max">
        <route edges="C3B3 B3B4 B4C4 C4D4 D4C4"/>
    </vehicle>
    <vehicle id="pm143" depart="1871.50" departLane="best" departSpeed="max">
        <route edges="E5D5 D5C5"/>
    </vehicle>
    <vehicle id="pm144" depart="1872.00" departLane="best" departSpeed="max">
        <route edges="C4C5 C5D5 D5D4 D4D3 D3D2 D2E2"/>
    </vehicle>
    <vehicle id="pm145" depart="1872.50" departLane="best" departSpeed="max">
        <route edges="B2B1 B1C1 C1C2 C2C3 C3D3"/>
    </vehicle>
    <vehicle id="pm146" depart="1873.00" departLane="best" departSpeed="max">
        <route edges="E4E5 E5D5 D5C5 C5C4"/>
    </vehicle>
    <vehicle id="pm147" depart="1873.50" departLane="best" departSpeed="max">
        <route edges="A1A0 A0B0 B0C0 C0D0 D0E0 E0E1 E1E2 E2E3 E3E4 E4D4"/>
    </vehicle>
    <vehicle id="pm148" depart="1874.00" departLane="best" departSpeed="max">
        <route edges="B0C0 C0C1 C1B1 B1A1 A1A2"/>
    </vehicle>
    <vehicle id="pm149" depart="1874.50" departLane="best" departSpeed="max">
        <route edges="D2D3 D3E3 E3E2 E2F2"/>
    </vehicle>
    <vehicle id="pm150" depart="1875.00" departLane="best" departSpeed="max">
        <route edges="A4B4 B4C4 C4B4"/>
    </vehicle>
    <vehicle id="pm151" depart="1875.50" departLane="best" departSpeed="max">
        <route edges="C4C5 C5B5 B5A5 A5A4"/>
    </vehicle>
    <vehicle id="pm152" depart="1876.00" departLane="best" departSpeed="max">
        <route edges="D4C4 C4B4 B4B3 B3C3"/>
    </vehicle>
    <vehicle id="pm153" depart="1876.50" departLane="best" departSpeed="max">
        <route edges="E0D0 D0C0"/>
    </vehicle>
    <vehicle id="pm154" depart="1877.00" departLane="best" departSpeed="max">
        <route edges="D0E0 E0E1 E1E2 E2E3 E3D3 D3C3 C3B3 B3A3"/>
    </vehicle>
    <vehicle id="pm155" depart="1877.50" departLane="best" departSpeed="max">
        <route edges="E2E3 E3D3 D3C3 C3B3 B3A3 A3A2 A2A1 A1A0 A0B0"/>
    </vehicle>
    <vehicle id="pm156" depart="1878.00" departLane="best" departSpeed="max">
        <route edges="B5C5 C5C4 C4B4 B4A4 A4A5"/>
    </vehicle>
    <vehicle id="pm157" depart="1878.50" departLane="best" departSpeed="max">
        <route edges="A3B3 B3B2 B2B1 B1A1 A1A0 A0B0"/>
    </vehicle>
    <vehicle id="pm158" depart="1879.00" departLane="best" departSpeed="max">
        <route edges="D0E0 E0E1 E1E2 E2E3 E3D3 D3C3 C3B3 B3A3 A3A2"/>
    </vehicle>
    <vehicle id="pm159" depart="1879.50" departLane="best" departSpeed="max">
        <route edges="A4B4 B4B3 B3C3 C3C4"/>
    </vehicle>
    <vehicle id="pm160" depart="1880.00" departLane="best" departSpeed="max">
        <route edges="D5E5 E5E4 E4E3 E3E2 E2D2 D2C2 C2B2 B2B1"/>
    </vehicle>
    <vehicle id="pm161" depart="1880.50" departLane="best" departSpeed="max">
        <route edges="D4E4 E4E3 E3E2 E2D2 D2D1 D1E1"/>
    </vehicle>
    <vehicle id="pm162" depart="1881.00" departLane="best" departSpeed="max">
        <route edges="F2F1 F1E1 E1E2 E2E3 E3E4 E4D4"/>
    </vehicle>
    <vehicle id="pm163" depart="1881.50" departLane="best" departSpeed="max">
        <route edges="F5E5 E5D5 D5C5 C5C4 C4C3 C3C2 C2C1 C1C0"/>
    </vehicle>
    <vehicle id="pm164" depart="1882.00" departLane="best" departSpeed="max">
        <route edges="F1E1 E1D1 D1C1 C1C0 C0B0"/>
    </vehicle>
    <vehicle id="pm165" depart="1882.50" departLane="best" departSpeed="max">
        <route edges="B4B5 B5C5 C5C4 C4C3 C3C4"/>
    </vehicle>
    <vehicle id="pm166" depart="1883.00" departLane="best" departSpeed="max">
        <route edges="A1A0 A0B0 B0C0 C0D0 D0D1 D1E1 E1E0"/>
    </vehicle>
    <vehicle id="pm167" depart="1883.50" departLane="best" departSpeed="max">
        <route edges="A3B3 B3C3 C3D3 D3D4"/>
    </vehicle>
    <vehicle id="pm168" depart="1884.00" departLane="best" departSpeed="max">
        <route edges="A2B2 B2C2 C2C3 C3C4"/>
    </vehicle>
    <vehicle id="pm169" depart="1884.50" departLane="best" departSpeed="max">
        <route edges="B3C3 C3D3 D3E3 E3F3 F3F2"/>
    </vehicle>
    <vehicle id="pm170" depart="1885.00" departLane="best" departSpeed="max">
        <route edges="B5A5 A5A4 A4A3 A3A2 A2B2 B2C2 C2C1 C1C0"/>
    </vehicle>
    <vehicle id="pm171" depart="1885.50" departLane="best" departSpeed="max">
        <route edges="B5B4 B4B5 B5A5 A5A4"/>
    </vehicle>
    <vehicle id="pm172" depart="1886.00" departLane="best" departSpeed="max">
        <route edges="D4D5 D5C5 C5B5 B5B4"/>
    </vehicle>
    <vehicle id="pm173" depart="1886.50" departLane="best" departSpeed="max">
        <route edges="B4B3 B3B4 B4B5 B5C5"/>
    </vehicle>
    <vehicle id="pm174" depart="1887.00" departLane="best" departSpeed="max">
        <route edges="C1C0 C0D0 D0E0 E0E1 E1E2 E2E3 E3E4"/>
    </vehicle>
    <vehicle id="pm175" depart="1887.50" departLane="best" departSpeed="max">
        <route edges="B2B3 B3B4 B4B5 B5A5 A5A4"/>
    </vehicle>
    <vehicle id="pm176" depart="1888.00" departLane="best" departSpeed="max">
        <route edges="C0C1 C1C2 C2D2 D2D1"/>
    </vehicle>
    <vehicle id="pm177" depart="1888.50" departLane="best" departSpeed="max">
        <route edges="B4B5 B5A5 A5A4 A4B4"/>
    </vehicle>
    <vehicle id="pm178" depart="1889.00" departLane="best" departSpeed="max">
        <route edges="C1C0 C0D0 D0E0 E0F0 F0F1 F1F2 F2F3 F3F4 F4E4"/>
    </vehicle>
    <vehicle id="pm179" depart="1889.50" departLane="best" departSpeed="max">
        <route edges="F1F0 F0E0 E0D0 D0D1 D1D2 D2D3 D3D4 D4C4 C4B4"/>
    </vehicle>
    <vehicle id="pm180" depart="1890.00" departLane="best" departSpeed="max">
        <route edges="C3C4 C4B4 B4B3 B3B2 B2B1 B1B0"/>
    </vehicle>
    <vehicle id="pm181" depart="1890.50" departLane="best" departSpeed="max">
        <route edges="D5D4 D4D3 D3D2 D2D1 D1E1 E1E0"/>
    </vehicle>
    <vehicle id="pm182" depart="1891.00" departLane="best" departSpeed="max">
        <route edges="B4A4 A4B4 B4C4 C4D4 D4C4"/>
    </vehicle>
    <vehicle id="pm183" depart="1891.50" departLane="best" departSpeed="max">
        <route edges="A4A5 A5B5 B5C5"/>
    </vehicle>
    <vehicle id="pm184" depart="1892.00" departLane="best" departSpeed="max">
        <route edges="B4C4 C4D4 D4D3 D3E3 E3E4"/>
    </vehicle>
    <vehicle id="pm185" depart="1892.50" departLane="best" departSpeed="max">
        <route edges="D3E3 E3E2 E2E1 E1E0 E0D0 D0D1"/>
    </vehicle>
    <vehicle id="pm186" depart="1893.00" departLane="best" departSpeed="max">
        <route edges="C3D3 D3D2 D2D1 D1E1"/>
    </vehicle>
    <vehicle id="pm187" depart="1893.50" departLane="best" departSpeed="max">
        <route edges="C5B5 B5B4 B4B3 B3C3"/>
    </vehicle>
    <vehicle id="pm188" depart="1894.00" departLane="best" departSpeed="max">
        <route edges="E4E5 E5E4 E4E3 E3E4"/>
    </vehicle>
    <vehicle id="pm189" depart="1894.50" departLane="best" departSpeed="max">
        <route edges="C2C1 C1C2 C2D2"/>
    </vehicle>
    <vehicle id="pm190" depart="1895.00" departLane="best" departSpeed="max">
        <route edges="F2F3 F3E3 E3D3 D3C3 C3B3 B3A3 A3A2 A2A1 A1A0"/>
    </vehicle>
    <vehicle id="pm191" depart="1895.50" departLane="best" departSpeed="max">
        <route edges="E2E3 E3D3 D3C3 C3B3 B3B2 B2B1 B1B0"/>
    </vehicle>
    <vehicle id="pm192" depart="1896.00" departLane="best" departSpeed="max">
        <route edges="B1C1 C1B1"/>
    </vehicle>
    <vehicle id="pm193" depart="1896.50" departLane="best" departSpeed="max">
        <route edges="D3E3 E3E2 E2E1 E1E0 E0D0 D0C0 C0B0"/>
    </vehicle>
    <vehicle id="pm194" depart="1897.00" departLane="best" departSpeed="max">
        <route edges="D0E0 E0D0 D0D1"/>
    </vehicle>
    <vehicle id="pm195" depart="1897.50" departLane="best" departSpeed="max">
        <route edges="F2F1 F1E1 E1D1 D1D2 D2D3"/>
    </vehicle>
    <vehicle id="pm196" depart="1898.00" departLane="best" departSpeed="max">
        <route edges="B4B3 B3C3 C3D3 D3D4 D4C4"/>
    </vehicle>