<?xml version="1.0" encoding="UTF-8"?>

<!-- generated on 2025-08-13 23:08:41 by Eclipse SUMO sumo Version 1.24.0
-->

<sumoConfiguration xmlns:xsi="http://www.w3.org/2001/XMLSchema-instance" xsi:noNamespaceSchemaLocation="http://sumo.dlr.de/xsd/sumoConfiguration.xsd">

    <input>
        <net-file value="network_prueba.net.xml"/>
        <route-files value="prueba.rou.xml"/>
    </input>

</sumoConfiguration>
