<?xml version="1.0" encoding="UTF-8"?>

<!-- generated on 2025-08-13 23:07:22 by Eclipse SUMO netedit Version 1.24.0
-->

<routes xmlns:xsi="http://www.w3.org/2001/XMLSchema-instance" xsi:noNamespaceSchemaLocation="http://sumo.dlr.de/xsd/routes_file.xsd">
    <!-- Vehicles, persons and containers (sorted by depart) -->
    <flow id="f_0" begin="0.00" color="blue" from="-E4" to="E5" end="3600.00" number="1800"/>
    <flow id="f_1" begin="0.00" color="green" from="-E5" to="E4" end="3600.00" number="1800"/>
</routes>
