<?xml version="1.0" encoding="UTF-8"?>

<!-- generated on 2025-08-14 20:26:02 by Eclipse SUMO netedit Version 1.19.0
-->

<routes xmlns:xsi="http://www.w3.org/2001/XMLSchema-instance" xsi:noNamespaceSchemaLocation="http://sumo.dlr.de/xsd/routes_file.xsd">
    <!-- Vehicles, persons and containers (sorted by depart) -->
    <flow id="veh1" begin="0.00" color="white" from="-E0.61" to="-E1" end="3600.00" vehsPerHour="1800"/>
</routes>
