<?xml version="1.0" encoding="UTF-8"?>

<!-- generated on 2025-08-14 21:05:01 by Eclipse SUMO sumo Version 1.19.0
-->

<configuration xmlns:xsi="http://www.w3.org/2001/XMLSchema-instance" xsi:noNamespaceSchemaLocation="http://sumo.dlr.de/xsd/sumoConfiguration.xsd">

    <input>
        <net-file value="simulacion_arista2.net.xml"/>
        <route-files value="simulacion_arista2.rou.xml"/>
    </input>

</configuration>
