<?xml version="1.0" encoding="UTF-8"?>

<!-- generated on 2025-08-14 10:45:56 by Eclipse SUMO netgenerate Version 1.24.0
<netgenerateConfiguration xmlns:xsi="http://www.w3.org/2001/XMLSchema-instance" xsi:noNamespaceSchemaLocation="http://sumo.dlr.de/xsd/netgenerateConfiguration.xsd">

    <spider_network>
        <spider value="true"/>
        <spider.arm-number value="4"/>
        <spider.circle-number value="1"/>
        <spider.space-radius value="150"/>
    </spider_network>

    <output>
        <output-file value="sumo/scenarios/cross_plus/net.net.xml"/>
    </output>

    <building_defaults>
        <default.lanenumber value="1"/>
        <default-junction-type value="traffic_light"/>
    </building_defaults>

    <tls_building>
        <tls.default-type value="static"/>
    </tls_building>

</netgenerateConfiguration>
-->

<net version="1.20" junctionCornerDetail="5" limitTurnSpeed="5.50" xmlns:xsi="http://www.w3.org/2001/XMLSchema-instance" xsi:noNamespaceSchemaLocation="http://sumo.dlr.de/xsd/net_file.xsd">

    <location netOffset="150.00,150.00" convBoundary="0.00,0.00,300.00,300.00" origBoundary="-150.00,-150.00,150.00,150.00" projParameter="!"/>

    <edge id=":A1_0" function="internal">
        <lane id=":A1_0_0" index="0" speed="6.51" length="9.03" shape="148.40,157.20 148.05,154.75 147.00,153.00 145.25,151.95 142.80,151.60"/>
    </edge>
    <edge id=":A1_1" function="internal">
        <lane id=":A1_1_0" index="0" speed="13.89" length="14.40" shape="148.40,157.20 148.40,142.80"/>
    </edge>
    <edge id=":A1_2" function="internal">
        <lane id=":A1_2_0" index="0" speed="7.80" length="13.44" shape="148.40,157.20 149.19,154.07 151.24,151.24 154.07,149.19 157.20,148.40"/>
    </edge>
    <edge id=":A1_3" function="internal">
        <lane id=":A1_3_0" index="0" speed="3.65" length="4.67" shape="148.40,157.20 149.20,156.00 150.00,155.60 150.80,156.00 151.60,157.20"/>
    </edge>
    <edge id=":A1_4" function="internal">
        <lane id=":A1_4_0" index="0" speed="6.51" length="9.03" shape="157.20,151.60 154.75,151.95 153.00,153.00 151.95,154.75 151.60,157.20"/>
    </edge>
    <edge id=":A1_5" function="internal">
        <lane id=":A1_5_0" index="0" speed="13.89" length="14.40" shape="157.20,151.60 142.80,151.60"/>
    </edge>
    <edge id=":A1_6" function="internal">
        <lane id=":A1_6_0" index="0" speed="7.80" length="13.44" shape="157.20,151.60 154.07,150.81 151.24,148.76 149.19,145.93 148.40,142.80"/>
    </edge>
    <edge id=":A1_7" function="internal">
        <lane id=":A1_7_0" index="0" speed="3.65" length="4.67" shape="157.20,151.60 156.00,150.80 155.60,150.00 156.00,149.20 157.20,148.40"/>
    </edge>
    <edge id=":A1_8" function="internal">
        <lane id=":A1_8_0" index="0" speed="6.51" length="9.03" shape="151.60,142.80 151.95,145.25 153.00,147.00 154.75,148.05 157.20,148.40"/>
    </edge>
    <edge id=":A1_9" function="internal">
        <lane id=":A1_9_0" index="0" speed="13.89" length="14.40" shape="151.60,142.80 151.60,157.20"/>
    </edge>
    <edge id=":A1_10" function="internal">
        <lane id=":A1_10_0" index="0" speed="7.80" length="13.44" shape="151.60,142.80 150.81,145.93 148.76,148.76 145.93,150.81 142.80,151.60"/>
    </edge>
    <edge id=":A1_11" function="internal">
        <lane id=":A1_11_0" index="0" speed="3.65" length="4.67" shape="151.60,142.80 150.80,144.00 150.00,144.40 149.20,144.00 148.40,142.80"/>
    </edge>
    <edge id=":A1_12" function="internal">
        <lane id=":A1_12_0" index="0" speed="6.51" length="9.03" shape="142.80,148.40 145.25,148.05 147.00,147.00 148.05,145.25 148.40,142.80"/>
    </edge>
    <edge id=":A1_13" function="internal">
        <lane id=":A1_13_0" index="0" speed="13.89" length="14.40" shape="142.80,148.40 157.20,148.40"/>
    </edge>
    <edge id=":A1_14" function="internal">
        <lane id=":A1_14_0" index="0" speed="7.80" length="13.44" shape="142.80,148.40 145.93,149.19 148.76,151.24 150.81,154.07 151.60,157.20"/>
    </edge>
    <edge id=":A1_15" function="internal">
        <lane id=":A1_15_0" index="0" speed="3.65" length="4.67" shape="142.80,148.40 144.00,149.20 144.40,150.00 144.00,150.80 142.80,151.60"/>
    </edge>
    <edge id=":B1_0" function="internal">
        <lane id=":B1_0_0" index="0" speed="9.73" length="21.49" shape="292.84,140.58 296.37,145.29 297.55,150.00 296.37,154.71 292.84,159.42"/>
    </edge>
    <edge id=":B1_1" function="internal">
        <lane id=":B1_1_0" index="0" speed="7.42" length="9.49" shape="292.84,140.58 296.69,145.40 297.19,148.68"/>
    </edge>
    <edge id=":B1_2" function="internal">
        <lane id=":B1_2_0" index="0" speed="3.65" length="1.44" shape="292.84,140.58 293.12,141.99"/>
    </edge>
    <edge id=":B1_9" function="internal">
        <lane id=":B1_9_0" index="0" speed="7.42" length="9.82" shape="297.19,148.68 297.21,148.84 294.41,150.91 288.27,151.60"/>
    </edge>
    <edge id=":B1_10" function="internal">
        <lane id=":B1_10_0" index="0" speed="3.65" length="3.23" shape="293.12,141.99 292.84,142.84 291.99,143.12 290.58,142.84"/>
    </edge>
    <edge id=":B1_3" function="internal">
        <lane id=":B1_3_0" index="0" speed="5.47" length="9.74" shape="288.27,148.40 291.37,148.05 292.78,147.01 292.52,145.27 290.58,142.84"/>
    </edge>
    <edge id=":B1_4" function="internal">
        <lane id=":B1_4_0" index="0" speed="7.42" length="19.31" shape="288.27,148.40 294.41,149.09 297.21,151.16 296.69,154.60 292.84,159.42"/>
    </edge>
    <edge id=":B1_5" function="internal">
        <lane id=":B1_5_0" index="0" speed="3.65" length="1.44" shape="288.27,148.40 289.47,149.20"/>
    </edge>
    <edge id=":B1_11" function="internal">
        <lane id=":B1_11_0" index="0" speed="3.65" length="3.23" shape="289.47,149.20 289.87,150.00 289.47,150.80 288.27,151.60"/>
    </edge>
    <edge id=":B1_6" function="internal">
        <lane id=":B1_6_0" index="0" speed="5.47" length="9.74" shape="290.58,157.16 292.52,154.73 292.78,152.99 291.37,151.95 288.27,151.60"/>
    </edge>
    <edge id=":B1_7" function="internal">
        <lane id=":B1_7_0" index="0" speed="8.54" length="16.33" shape="290.58,157.16 293.26,153.58 294.16,150.00 293.26,146.42 290.58,142.84"/>
    </edge>
    <edge id=":B1_8" function="internal">
        <lane id=":B1_8_0" index="0" speed="3.65" length="1.30" shape="290.58,157.16 291.86,156.90"/>
    </edge>
    <edge id=":B1_12" function="internal">
        <lane id=":B1_12_0" index="0" speed="3.65" length="3.37" shape="291.86,156.90 291.99,156.88 292.84,157.16 293.12,158.01 292.84,159.42"/>
    </edge>
    <edge id=":B2_0" function="internal">
        <lane id=":B2_0_0" index="0" speed="9.73" length="21.49" shape="159.42,292.84 154.71,296.37 150.00,297.55 145.29,296.37 140.58,292.84"/>
    </edge>
    <edge id=":B2_1" function="internal">
        <lane id=":B2_1_0" index="0" speed="7.42" length="9.49" shape="159.42,292.84 154.60,296.69 151.32,297.19"/>
    </edge>
    <edge id=":B2_2" function="internal">
        <lane id=":B2_2_0" index="0" speed="3.65" length="1.44" shape="159.42,292.84 158.01,293.12"/>
    </edge>
    <edge id=":B2_9" function="internal">
        <lane id=":B2_9_0" index="0" speed="7.42" length="9.82" shape="151.32,297.19 151.16,297.21 149.09,294.41 148.40,288.27"/>
    </edge>
    <edge id=":B2_10" function="internal">
        <lane id=":B2_10_0" index="0" speed="3.65" length="3.23" shape="158.01,293.12 157.16,292.84 156.88,291.99 157.16,290.58"/>
    </edge>
    <edge id=":B2_3" function="internal">
        <lane id=":B2_3_0" index="0" speed="5.47" length="9.74" shape="151.60,288.27 151.95,291.37 152.99,292.78 154.73,292.52 157.16,290.58"/>
    </edge>
    <edge id=":B2_4" function="internal">
        <lane id=":B2_4_0" index="0" speed="7.42" length="19.31" shape="151.60,288.27 150.91,294.41 148.84,297.21 145.40,296.69 140.58,292.84"/>
    </edge>
    <edge id=":B2_5" function="internal">
        <lane id=":B2_5_0" index="0" speed="3.65" length="1.44" shape="151.60,288.27 150.80,289.47"/>
    </edge>
    <edge id=":B2_11" function="internal">
        <lane id=":B2_11_0" index="0" speed="3.65" length="3.23" shape="150.80,289.47 150.00,289.87 149.20,289.47 148.40,288.27"/>
    </edge>
    <edge id=":B2_6" function="internal">
        <lane id=":B2_6_0" index="0" speed="5.47" length="9.74" shape="142.84,290.58 145.27,292.52 147.01,292.78 148.05,291.37 148.40,288.27"/>
    </edge>
    <edge id=":B2_7" function="internal">
        <lane id=":B2_7_0" index="0" speed="8.54" length="16.33" shape="142.84,290.58 146.42,293.26 150.00,294.16 153.58,293.26 157.16,290.58"/>
    </edge>
    <edge id=":B2_8" function="internal">
        <lane id=":B2_8_0" index="0" speed="3.65" length="1.30" shape="142.84,290.58 143.10,291.86"/>
    </edge>
    <edge id=":B2_12" function="internal">
        <lane id=":B2_12_0" index="0" speed="3.65" length="3.37" shape="143.10,291.86 143.12,291.99 142.84,292.84 141.99,293.12 140.58,292.84"/>
    </edge>
    <edge id=":B3_0" function="internal">
        <lane id=":B3_0_0" index="0" speed="9.73" length="21.49" shape="7.16,159.42 3.63,154.71 2.45,150.00 3.63,145.29 7.16,140.58"/>
    </edge>
    <edge id=":B3_1" function="internal">
        <lane id=":B3_1_0" index="0" speed="7.42" length="9.49" shape="7.16,159.42 3.31,154.60 2.81,151.32"/>
    </edge>
    <edge id=":B3_2" function="internal">
        <lane id=":B3_2_0" index="0" speed="3.65" length="1.44" shape="7.16,159.42 6.88,158.01"/>
    </edge>
    <edge id=":B3_9" function="internal">
        <lane id=":B3_9_0" index="0" speed="7.42" length="9.82" shape="2.81,151.32 2.79,151.16 5.59,149.09 11.73,148.40"/>
    </edge>
    <edge id=":B3_10" function="internal">
        <lane id=":B3_10_0" index="0" speed="3.65" length="3.23" shape="6.88,158.01 7.16,157.16 8.01,156.88 9.42,157.16"/>
    </edge>
    <edge id=":B3_3" function="internal">
        <lane id=":B3_3_0" index="0" speed="5.47" length="9.74" shape="11.73,151.60 8.63,151.95 7.22,152.99 7.48,154.73 9.42,157.16"/>
    </edge>
    <edge id=":B3_4" function="internal">
        <lane id=":B3_4_0" index="0" speed="7.42" length="19.31" shape="11.73,151.60 5.59,150.91 2.79,148.84 3.31,145.40 7.16,140.58"/>
    </edge>
    <edge id=":B3_5" function="internal">
        <lane id=":B3_5_0" index="0" speed="3.65" length="1.44" shape="11.73,151.60 10.53,150.80"/>
    </edge>
    <edge id=":B3_11" function="internal">
        <lane id=":B3_11_0" index="0" speed="3.65" length="3.23" shape="10.53,150.80 10.13,150.00 10.53,149.20 11.73,148.40"/>
    </edge>
    <edge id=":B3_6" function="internal">
        <lane id=":B3_6_0" index="0" speed="5.47" length="9.74" shape="9.42,142.84 7.48,145.27 7.22,147.01 8.63,148.05 11.73,148.40"/>
    </edge>
    <edge id=":B3_7" function="internal">
        <lane id=":B3_7_0" index="0" speed="8.54" length="16.33" shape="9.42,142.84 6.74,146.42 5.84,150.00 6.74,153.58 9.42,157.16"/>
    </edge>
    <edge id=":B3_8" function="internal">
        <lane id=":B3_8_0" index="0" speed="3.65" length="1.30" shape="9.42,142.84 8.14,143.10"/>
    </edge>
    <edge id=":B3_12" function="internal">
        <lane id=":B3_12_0" index="0" speed="3.65" length="3.37" shape="8.14,143.10 8.01,143.12 7.16,142.84 6.88,141.99 7.16,140.58"/>
    </edge>
    <edge id=":B4_0" function="internal">
        <lane id=":B4_0_0" index="0" speed="5.47" length="9.74" shape="148.40,11.73 148.05,8.63 147.01,7.22 145.27,7.48 142.84,9.42"/>
    </edge>
    <edge id=":B4_1" function="internal">
        <lane id=":B4_1_0" index="0" speed="7.42" length="19.31" shape="148.40,11.73 149.09,5.59 151.16,2.79 154.60,3.31 159.42,7.16"/>
    </edge>
    <edge id=":B4_2" function="internal">
        <lane id=":B4_2_0" index="0" speed="3.65" length="1.44" shape="148.40,11.73 149.20,10.53"/>
    </edge>
    <edge id=":B4_9" function="internal">
        <lane id=":B4_9_0" index="0" speed="3.65" length="3.23" shape="149.20,10.53 150.00,10.13 150.80,10.53 151.60,11.73"/>
    </edge>
    <edge id=":B4_3" function="internal">
        <lane id=":B4_3_0" index="0" speed="5.47" length="9.74" shape="157.16,9.42 154.73,7.48 152.99,7.22 151.95,8.63 151.60,11.73"/>
    </edge>
    <edge id=":B4_4" function="internal">
        <lane id=":B4_4_0" index="0" speed="8.54" length="16.33" shape="157.16,9.42 153.58,6.74 150.00,5.84 146.42,6.74 142.84,9.42"/>
    </edge>
    <edge id=":B4_5" function="internal">
        <lane id=":B4_5_0" index="0" speed="3.65" length="1.30" shape="157.16,9.42 156.90,8.14"/>
    </edge>
    <edge id=":B4_10" function="internal">
        <lane id=":B4_10_0" index="0" speed="3.65" length="3.37" shape="156.90,8.14 156.88,8.01 157.16,7.16 158.01,6.88 159.42,7.16"/>
    </edge>
    <edge id=":B4_6" function="internal">
        <lane id=":B4_6_0" index="0" speed="9.73" length="21.49" shape="140.58,7.16 145.29,3.63 150.00,2.45 154.71,3.63 159.42,7.16"/>
    </edge>
    <edge id=":B4_7" function="internal">
        <lane id=":B4_7_0" index="0" speed="7.42" length="9.49" shape="140.58,7.16 145.40,3.31 148.68,2.81"/>
    </edge>
    <edge id=":B4_8" function="internal">
        <lane id=":B4_8_0" index="0" speed="3.65" length="1.44" shape="140.58,7.16 141.99,6.88"/>
    </edge>
    <edge id=":B4_11" function="internal">
        <lane id=":B4_11_0" index="0" speed="7.42" length="9.82" shape="148.68,2.81 148.84,2.79 150.91,5.59 151.60,11.73"/>
    </edge>
    <edge id=":B4_12" function="internal">
        <lane id=":B4_12_0" index="0" speed="3.65" length="3.23" shape="141.99,6.88 142.84,7.16 143.12,8.01 142.84,9.42"/>
    </edge>

    <edge id="A1B1" from="A1" to="B1" priority="-1">
        <lane id="A1B1_0" index="0" speed="13.89" length="131.07" shape="157.20,148.40 288.27,148.40"/>
    </edge>
    <edge id="A1B2" from="A1" to="B2" priority="-1">
        <lane id="A1B2_0" index="0" speed="13.89" length="131.07" shape="151.60,157.20 151.60,288.27"/>
    </edge>
    <edge id="A1B3" from="A1" to="B3" priority="-1">
        <lane id="A1B3_0" index="0" speed="13.89" length="131.07" shape="142.80,151.60 11.73,151.60"/>
    </edge>
    <edge id="A1B4" from="A1" to="B4" priority="-1">
        <lane id="A1B4_0" index="0" speed="13.89" length="131.07" shape="148.40,142.80 148.40,11.73"/>
    </edge>
    <edge id="B1A1" from="B1" to="A1" priority="-1">
        <lane id="B1A1_0" index="0" speed="13.89" length="131.07" shape="288.27,151.60 157.20,151.60"/>
    </edge>
    <edge id="B1B2" from="B1" to="B2" priority="-1">
        <lane id="B1B2_0" index="0" speed="13.89" length="188.68" shape="292.84,159.42 159.42,292.84"/>
    </edge>
    <edge id="B1B4" from="B1" to="B4" priority="-1">
        <lane id="B1B4_0" index="0" speed="13.89" length="188.68" shape="290.58,142.84 157.16,9.42"/>
    </edge>
    <edge id="B2A1" from="B2" to="A1" priority="-1">
        <lane id="B2A1_0" index="0" speed="13.89" length="131.07" shape="148.40,288.27 148.40,157.20"/>
    </edge>
    <edge id="B2B1" from="B2" to="B1" priority="-1">
        <lane id="B2B1_0" index="0" speed="13.89" length="188.68" shape="157.16,290.58 290.58,157.16"/>
    </edge>
    <edge id="B2B3" from="B2" to="B3" priority="-1">
        <lane id="B2B3_0" index="0" speed="13.89" length="188.68" shape="140.58,292.84 7.16,159.42"/>
    </edge>
    <edge id="B3A1" from="B3" to="A1" priority="-1">
        <lane id="B3A1_0" index="0" speed="13.89" length="131.07" shape="11.73,148.40 142.80,148.40"/>
    </edge>
    <edge id="B3B2" from="B3" to="B2" priority="-1">
        <lane id="B3B2_0" index="0" speed="13.89" length="188.68" shape="9.42,157.16 142.84,290.58"/>
    </edge>
    <edge id="B3B4" from="B3" to="B4" priority="-1">
        <lane id="B3B4_0" index="0" speed="13.89" length="188.68" shape="7.16,140.58 140.58,7.16"/>
    </edge>
    <edge id="B4A1" from="B4" to="A1" priority="-1">
        <lane id="B4A1_0" index="0" speed="13.89" length="131.07" shape="151.60,11.73 151.60,142.80"/>
    </edge>
    <edge id="B4B1" from="B4" to="B1" priority="-1">
        <lane id="B4B1_0" index="0" speed="13.89" length="188.68" shape="159.42,7.16 292.84,140.58"/>
    </edge>
    <edge id="B4B3" from="B4" to="B3" priority="-1">
        <lane id="B4B3_0" index="0" speed="13.89" length="188.68" shape="142.84,9.42 9.42,142.84"/>
    </edge>

    <tlLogic id="B1" type="static" programID="0" offset="0">
        <phase duration="42" state="GggrrrGGg"/>
        <phase duration="3"  state="yyyrrrGyy"/>
        <phase duration="42" state="rrrGGgGrr"/>
        <phase duration="3"  state="rrryyyGrr"/>
    </tlLogic>
    <tlLogic id="B2" type="static" programID="0" offset="0">
        <phase duration="42" state="GggrrrGGg"/>
        <phase duration="3"  state="yyyrrrGyy"/>
        <phase duration="42" state="rrrGGgGrr"/>
        <phase duration="3"  state="rrryyyGrr"/>
    </tlLogic>
    <tlLogic id="B3" type="static" programID="0" offset="0">
        <phase duration="42" state="GggrrrGGg"/>
        <phase duration="3"  state="yyyrrrGyy"/>
        <phase duration="42" state="rrrGGgGrr"/>
        <phase duration="3"  state="rrryyyGrr"/>
    </tlLogic>
    <tlLogic id="B4" type="static" programID="0" offset="0">
        <phase duration="42" state="rrrGGgGgg"/>
        <phase duration="3"  state="rrrGyyyyy"/>
        <phase duration="42" state="GGgGrrrrr"/>
        <phase duration="3"  state="yyyGrrrrr"/>
    </tlLogic>

    <junction id="A1" type="unregulated" x="150.00" y="150.00" incLanes="B2A1_0 B1A1_0 B4A1_0 B3A1_0" intLanes=":A1_0_0 :A1_1_0 :A1_2_0 :A1_3_0 :A1_4_0 :A1_5_0 :A1_6_0 :A1_7_0 :A1_8_0 :A1_9_0 :A1_10_0 :A1_11_0 :A1_12_0 :A1_13_0 :A1_14_0 :A1_15_0" shape="146.80,157.20 153.20,157.20 153.64,154.98 154.20,154.20 154.98,153.64 155.98,153.31 157.20,153.20 157.20,146.80 154.98,146.36 154.20,145.80 153.64,145.02 153.31,144.02 153.20,142.80 146.80,142.80 146.36,145.02 145.80,145.80 145.02,146.36 144.02,146.69 142.80,146.80 142.80,153.20 145.02,153.64 145.80,154.20 146.36,154.98 146.69,155.98"/>
    <junction id="B1" type="traffic_light" x="300.00" y="150.00" incLanes="B4B1_0 A1B1_0 B2B1_0" intLanes=":B1_0_0 :B1_9_0 :B1_10_0 :B1_3_0 :B1_4_0 :B1_11_0 :B1_6_0 :B1_7_0 :B1_12_0" shape="293.97,139.45 289.45,143.97 290.57,145.54 290.57,146.09 290.18,146.49 289.42,146.72 288.27,146.80 288.27,153.20 290.18,153.51 290.57,153.91 290.57,154.46 290.20,155.16 289.45,156.03 293.97,160.55 296.90,157.04 298.66,153.52 299.25,150.00 298.66,146.48 296.90,142.96">
        <request index="0" response="000000000" foes="100010000" cont="0"/>
        <request index="1" response="011000000" foes="011110000" cont="1"/>
        <request index="2" response="010001000" foes="010001000" cont="1"/>
        <request index="3" response="010000000" foes="010000100" cont="0"/>
        <request index="4" response="010000011" foes="110000011" cont="0"/>
        <request index="5" response="001000010" foes="001000010" cont="1"/>
        <request index="6" response="000000000" foes="000100010" cont="0"/>
        <request index="7" response="000000000" foes="000011110" cont="0"/>
        <request index="8" response="000010001" foes="000010001" cont="1"/>
    </junction>
    <junction id="B2" type="traffic_light" x="150.00" y="300.00" incLanes="B1B2_0 A1B2_0 B3B2_0" intLanes=":B2_0_0 :B2_9_0 :B2_10_0 :B2_3_0 :B2_4_0 :B2_11_0 :B2_6_0 :B2_7_0 :B2_12_0" shape="160.55,293.97 156.03,289.45 154.46,290.57 153.91,290.57 153.51,290.18 153.28,289.42 153.20,288.27 146.80,288.27 146.49,290.18 146.09,290.57 145.54,290.57 144.84,290.20 143.97,289.45 139.45,293.97 142.96,296.90 146.48,298.66 150.00,299.25 153.52,298.66 157.04,296.90">
        <request index="0" response="000000000" foes="100010000" cont="0"/>
        <request index="1" response="011000000" foes="011110000" cont="1"/>
        <request index="2" response="010001000" foes="010001000" cont="1"/>
        <request index="3" response="010000000" foes="010000100" cont="0"/>
        <request index="4" response="010000011" foes="110000011" cont="0"/>
        <request index="5" response="001000010" foes="001000010" cont="1"/>
        <request index="6" response="000000000" foes="000100010" cont="0"/>
        <request index="7" response="000000000" foes="000011110" cont="0"/>
        <request index="8" response="000010001" foes="000010001" cont="1"/>
    </junction>
    <junction id="B3" type="traffic_light" x="0.00" y="150.00" incLanes="B2B3_0 A1B3_0 B4B3_0" intLanes=":B3_0_0 :B3_9_0 :B3_10_0 :B3_3_0 :B3_4_0 :B3_11_0 :B3_6_0 :B3_7_0 :B3_12_0" shape="6.03,160.55 10.55,156.03 9.43,154.46 9.43,153.91 9.82,153.51 10.58,153.28 11.73,153.20 11.73,146.80 9.82,146.49 9.43,146.09 9.43,145.54 9.80,144.84 10.55,143.97 6.03,139.45 3.10,142.96 1.34,146.48 0.75,150.00 1.34,153.52 3.10,157.04">
        <request index="0" response="000000000" foes="100010000" cont="0"/>
        <request index="1" response="011000000" foes="011110000" cont="1"/>
        <request index="2" response="010001000" foes="010001000" cont="1"/>
        <request index="3" response="010000000" foes="010000100" cont="0"/>
        <request index="4" response="010000011" foes="110000011" cont="0"/>
        <request index="5" response="001000010" foes="001000010" cont="1"/>
        <request index="6" response="000000000" foes="000100010" cont="0"/>
        <request index="7" response="000000000" foes="000011110" cont="0"/>
        <request index="8" response="000010001" foes="000010001" cont="1"/>
    </junction>
    <junction id="B4" type="traffic_light" x="150.00" y="0.00" incLanes="A1B4_0 B1B4_0 B3B4_0" intLanes=":B4_0_0 :B4_1_0 :B4_9_0 :B4_3_0 :B4_4_0 :B4_10_0 :B4_6_0 :B4_11_0 :B4_12_0" shape="146.80,11.73 153.20,11.73 153.51,9.82 153.91,9.43 154.46,9.43 155.16,9.80 156.03,10.55 160.55,6.03 157.04,3.10 153.52,1.34 150.00,0.75 146.48,1.34 142.96,3.10 139.45,6.03 143.97,10.55 145.54,9.43 146.09,9.43 146.49,9.82 146.72,10.58">
        <request index="0" response="000010000" foes="100010000" cont="0"/>
        <request index="1" response="011010000" foes="011110000" cont="0"/>
        <request index="2" response="010001000" foes="010001000" cont="1"/>
        <request index="3" response="000000000" foes="010000100" cont="0"/>
        <request index="4" response="000000000" foes="110000011" cont="0"/>
        <request index="5" response="001000010" foes="001000010" cont="1"/>
        <request index="6" response="000000000" foes="000100010" cont="0"/>
        <request index="7" response="000011000" foes="000011110" cont="1"/>
        <request index="8" response="000010001" foes="000010001" cont="1"/>
    </junction>

    <junction id=":B1_9_0" type="internal" x="297.19" y="148.68" incLanes=":B1_1_0 B2B1_0" intLanes=":B1_4_0 :B1_5_0 :B1_6_0 :B1_7_0"/>
    <junction id=":B1_10_0" type="internal" x="293.12" y="141.99" incLanes=":B1_2_0 A1B1_0 B2B1_0" intLanes=":B1_3_0 :B1_7_0"/>
    <junction id=":B1_11_0" type="internal" x="289.47" y="149.20" incLanes=":B1_5_0 B2B1_0 B4B1_0" intLanes=":B1_1_0 :B1_6_0"/>
    <junction id=":B1_12_0" type="internal" x="291.86" y="156.90" incLanes=":B1_8_0 A1B1_0 B4B1_0" intLanes=":B1_0_0 :B1_4_0"/>
    <junction id=":B2_9_0" type="internal" x="151.32" y="297.19" incLanes=":B2_1_0 B3B2_0" intLanes=":B2_4_0 :B2_5_0 :B2_6_0 :B2_7_0"/>
    <junction id=":B2_10_0" type="internal" x="158.01" y="293.12" incLanes=":B2_2_0 A1B2_0 B3B2_0" intLanes=":B2_3_0 :B2_7_0"/>
    <junction id=":B2_11_0" type="internal" x="150.80" y="289.47" incLanes=":B2_5_0 B1B2_0 B3B2_0" intLanes=":B2_1_0 :B2_6_0"/>
    <junction id=":B2_12_0" type="internal" x="143.10" y="291.86" incLanes=":B2_8_0 A1B2_0 B1B2_0" intLanes=":B2_0_0 :B2_4_0"/>
    <junction id=":B3_9_0" type="internal" x="2.81" y="151.32" incLanes=":B3_1_0 B4B3_0" intLanes=":B3_4_0 :B3_5_0 :B3_6_0 :B3_7_0"/>
    <junction id=":B3_10_0" type="internal" x="6.88" y="158.01" incLanes=":B3_2_0 A1B3_0 B4B3_0" intLanes=":B3_3_0 :B3_7_0"/>
    <junction id=":B3_11_0" type="internal" x="10.53" y="150.80" incLanes=":B3_5_0 B2B3_0 B4B3_0" intLanes=":B3_1_0 :B3_6_0"/>
    <junction id=":B3_12_0" type="internal" x="8.14" y="143.10" incLanes=":B3_8_0 A1B3_0 B2B3_0" intLanes=":B3_0_0 :B3_4_0"/>
    <junction id=":B4_9_0" type="internal" x="149.20" y="10.53" incLanes=":B4_2_0 B1B4_0 B3B4_0" intLanes=":B4_3_0 :B4_7_0"/>
    <junction id=":B4_10_0" type="internal" x="156.90" y="8.14" incLanes=":B4_5_0 A1B4_0 B3B4_0" intLanes=":B4_1_0 :B4_6_0"/>
    <junction id=":B4_11_0" type="internal" x="148.68" y="2.81" incLanes=":B4_7_0 B1B4_0" intLanes=":B4_1_0 :B4_2_0 :B4_3_0 :B4_4_0"/>
    <junction id=":B4_12_0" type="internal" x="141.99" y="6.88" incLanes=":B4_8_0 A1B4_0 B1B4_0" intLanes=":B4_0_0 :B4_4_0"/>

    <connection from="A1B1" to="B1B4" fromLane="0" toLane="0" via=":B1_3_0" tl="B1" linkIndex="3" dir="r" state="o"/>
    <connection from="A1B1" to="B1B2" fromLane="0" toLane="0" via=":B1_4_0" tl="B1" linkIndex="4" dir="l" state="o"/>
    <connection from="A1B1" to="B1A1" fromLane="0" toLane="0" via=":B1_5_0" tl="B1" linkIndex="5" dir="t" state="o"/>
    <connection from="A1B2" to="B2B1" fromLane="0" toLane="0" via=":B2_3_0" tl="B2" linkIndex="3" dir="r" state="o"/>
    <connection from="A1B2" to="B2B3" fromLane="0" toLane="0" via=":B2_4_0" tl="B2" linkIndex="4" dir="l" state="o"/>
    <connection from="A1B2" to="B2A1" fromLane="0" toLane="0" via=":B2_5_0" tl="B2" linkIndex="5" dir="t" state="o"/>
    <connection from="A1B3" to="B3B2" fromLane="0" toLane="0" via=":B3_3_0" tl="B3" linkIndex="3" dir="r" state="o"/>
    <connection from="A1B3" to="B3B4" fromLane="0" toLane="0" via=":B3_4_0" tl="B3" linkIndex="4" dir="l" state="o"/>
    <connection from="A1B3" to="B3A1" fromLane="0" toLane="0" via=":B3_5_0" tl="B3" linkIndex="5" dir="t" state="o"/>
    <connection from="A1B4" to="B4B3" fromLane="0" toLane="0" via=":B4_0_0" tl="B4" linkIndex="0" dir="r" state="o"/>
    <connection from="A1B4" to="B4B1" fromLane="0" toLane="0" via=":B4_1_0" tl="B4" linkIndex="1" dir="l" state="o"/>
    <connection from="A1B4" to="B4A1" fromLane="0" toLane="0" via=":B4_2_0" tl="B4" linkIndex="2" dir="t" state="o"/>
    <connection from="B1A1" to="A1B2" fromLane="0" toLane="0" via=":A1_4_0" dir="r" state="M"/>
    <connection from="B1A1" to="A1B3" fromLane="0" toLane="0" via=":A1_5_0" dir="s" state="M"/>
    <connection from="B1A1" to="A1B4" fromLane="0" toLane="0" via=":A1_6_0" dir="l" state="M"/>
    <connection from="B1A1" to="A1B1" fromLane="0" toLane="0" via=":A1_7_0" dir="t" state="M"/>
    <connection from="B1B2" to="B2B3" fromLane="0" toLane="0" via=":B2_0_0" tl="B2" linkIndex="0" dir="L" state="O"/>
    <connection from="B1B2" to="B2A1" fromLane="0" toLane="0" via=":B2_1_0" tl="B2" linkIndex="1" dir="l" state="o"/>
    <connection from="B1B2" to="B2B1" fromLane="0" toLane="0" via=":B2_2_0" tl="B2" linkIndex="2" dir="t" state="o"/>
    <connection from="B1B4" to="B4A1" fromLane="0" toLane="0" via=":B4_3_0" tl="B4" linkIndex="3" dir="r" state="O"/>
    <connection from="B1B4" to="B4B3" fromLane="0" toLane="0" via=":B4_4_0" tl="B4" linkIndex="4" dir="R" state="O"/>
    <connection from="B1B4" to="B4B1" fromLane="0" toLane="0" via=":B4_5_0" tl="B4" linkIndex="5" dir="t" state="o"/>
    <connection from="B2A1" to="A1B3" fromLane="0" toLane="0" via=":A1_0_0" dir="r" state="M"/>
    <connection from="B2A1" to="A1B4" fromLane="0" toLane="0" via=":A1_1_0" dir="s" state="M"/>
    <connection from="B2A1" to="A1B1" fromLane="0" toLane="0" via=":A1_2_0" dir="l" state="M"/>
    <connection from="B2A1" to="A1B2" fromLane="0" toLane="0" via=":A1_3_0" dir="t" state="M"/>
    <connection from="B2B1" to="B1A1" fromLane="0" toLane="0" via=":B1_6_0" tl="B1" linkIndex="6" dir="r" state="O"/>
    <connection from="B2B1" to="B1B4" fromLane="0" toLane="0" via=":B1_7_0" tl="B1" linkIndex="7" dir="R" state="O"/>
    <connection from="B2B1" to="B1B2" fromLane="0" toLane="0" via=":B1_8_0" tl="B1" linkIndex="8" dir="t" state="o"/>
    <connection from="B2B3" to="B3B4" fromLane="0" toLane="0" via=":B3_0_0" tl="B3" linkIndex="0" dir="L" state="O"/>
    <connection from="B2B3" to="B3A1" fromLane="0" toLane="0" via=":B3_1_0" tl="B3" linkIndex="1" dir="l" state="o"/>
    <connection from="B2B3" to="B3B2" fromLane="0" toLane="0" via=":B3_2_0" tl="B3" linkIndex="2" dir="t" state="o"/>
    <connection from="B3A1" to="A1B4" fromLane="0" toLane="0" via=":A1_12_0" dir="r" state="M"/>
    <connection from="B3A1" to="A1B1" fromLane="0" toLane="0" via=":A1_13_0" dir="s" state="M"/>
    <connection from="B3A1" to="A1B2" fromLane="0" toLane="0" via=":A1_14_0" dir="l" state="M"/>
    <connection from="B3A1" to="A1B3" fromLane="0" toLane="0" via=":A1_15_0" dir="t" state="M"/>
    <connection from="B3B2" to="B2A1" fromLane="0" toLane="0" via=":B2_6_0" tl="B2" linkIndex="6" dir="r" state="O"/>
    <connection from="B3B2" to="B2B1" fromLane="0" toLane="0" via=":B2_7_0" tl="B2" linkIndex="7" dir="R" state="O"/>
    <connection from="B3B2" to="B2B3" fromLane="0" toLane="0" via=":B2_8_0" tl="B2" linkIndex="8" dir="t" state="o"/>
    <connection from="B3B4" to="B4B1" fromLane="0" toLane="0" via=":B4_6_0" tl="B4" linkIndex="6" dir="L" state="O"/>
    <connection from="B3B4" to="B4A1" fromLane="0" toLane="0" via=":B4_7_0" tl="B4" linkIndex="7" dir="l" state="o"/>
    <connection from="B3B4" to="B4B3" fromLane="0" toLane="0" via=":B4_8_0" tl="B4" linkIndex="8" dir="t" state="o"/>
    <connection from="B4A1" to="A1B1" fromLane="0" toLane="0" via=":A1_8_0" dir="r" state="M"/>
    <connection from="B4A1" to="A1B2" fromLane="0" toLane="0" via=":A1_9_0" dir="s" state="M"/>
    <connection from="B4A1" to="A1B3" fromLane="0" toLane="0" via=":A1_10_0" dir="l" state="M"/>
    <connection from="B4A1" to="A1B4" fromLane="0" toLane="0" via=":A1_11_0" dir="t" state="M"/>
    <connection from="B4B1" to="B1B2" fromLane="0" toLane="0" via=":B1_0_0" tl="B1" linkIndex="0" dir="L" state="O"/>
    <connection from="B4B1" to="B1A1" fromLane="0" toLane="0" via=":B1_1_0" tl="B1" linkIndex="1" dir="l" state="o"/>